data_JBW_OCT20_VACUUM_P-1_publ

_pd_block_id
  2021-11-25T16:56|JBW_OCT20_VACUUM_P-1|vacuum|gsas_jbwvaccum

_audit_creation_method  "from EXP file using GSAS2CIF"
_audit_creation_date                   2021-11-25T16:56
_audit_author_name                     vacuum
_audit_update_record
; 2021-11-25T16:56  Initial CIF as created by GSAS2CIF
;
# SUBMISSION DETAILS

_publ_contact_author_name            veronique_vanspeybroeck   # Name of author for correspondence
; ?
;
_publ_contact_author_email           veronique.vanspeybroeck@ugent.be

#==============================================================================
# SAMPLE PREPARATION DATA

# (In the unusual case where multiple samples are used in a single
#  Rietveld study, this information should be moved into the phase
#  blocks)

# The following three fields describe the preparation of the material.
# The cooling rate is in K/min.  The pressure at which the sample was
# prepared is in kPa.  The temperature of preparation is in K.

_pd_prep_cool_rate                ?
_pd_prep_pressure                 ?
_pd_prep_temperature              ?

_pd_char_colour                   ?       # use ICDD colour descriptions
_refine_ls_shift/su_max                11.90
_refine_ls_shift/su_mean               2.22
_computing_structure_refinement        GSAS
_refine_ls_number_parameters           79
_refine_ls_goodness_of_fit_all         3.42
_refine_ls_number_restraints           42
_refine_ls_matrix_type                 full
#==============================================================================
# Phase information from GSAS

_pd_phase_name                         JBW_168hr_vacuum
_cell_length_a                         7.94578(12)
_cell_length_b                         5.16868(6)
_cell_length_c                         15.16556(17)
_cell_angle_alpha                      89.8501(21)
_cell_angle_beta                       93.6126(11)
_cell_angle_gamma                      89.9469(20)
_cell_volume                           621.598(10)
_symmetry_cell_setting                 triclinic
_symmetry_space_group_name_H-M         "P -1"
loop_ _symmetry_equiv_pos_site_id _symmetry_equiv_pos_as_xyz
       1 +x,+y,+z 
      -1 -x,-y,-z 

# ATOMIC COORDINATES AND DISPLACEMENT PARAMETERS


loop_
      _atom_site_type_symbol
      _atom_site_label
      _atom_site_fract_x
      _atom_site_fract_y
      _atom_site_fract_z
      _atom_site_occupancy
      _atom_site_thermal_displace_type
      _atom_site_U_iso_or_equiv
      _atom_site_symmetry_multiplicity
Al
Al1     0.1310(11)   0.2533(17)   0.4048(6)    1.0        Uiso   0.0182(6)     2
Al
Al2     0.0823(10)   0.2732(16)   0.1089(5)    1.0        Uiso   0.0182(6)     2
Al
Al3     0.5883(9)    0.7791(17)   0.2386(6)    1.0        Uiso   0.0182(6)     2
Si
Si1     0.8580(10)   0.7624(16)   0.0933(6)    1.0        Uiso   0.0182(6)     2
Si
Si2     0.8947(9)    0.7724(15)   0.3826(5)    1.0        Uiso   0.0182(6)     2
Si
Si3     0.6227(9)    0.7243(17)   0.7390(6)    1.0        Uiso   0.0182(6)     2
O 
O1      0.9220(16)   0.0577(22)   0.1180(10)   1.0        Uiso   0.0183(10)    2
O 
O2      0.0516(17)   0.5664(24)   0.3800(10)   1.0        Uiso   0.0183(10)    2
O 
O3      0.0239(16)   0.9440(23)   0.6504(9)    1.0        Uiso   0.0183(10)    2
O 
O4      1.0107(17)   0.4360(24)   0.8565(9)    1.0        Uiso   0.0183(10)    2
O 
O5      0.1760(17)   0.2799(32)   0.0092(7)    1.0        Uiso   0.0183(10)    2
O 
O6      0.5872(16)   0.4054(22)   0.7486(10)   1.0        Uiso   0.0183(10)    2
O 
O7      0.1521(18)   0.2095(31)   0.5131(7)    1.0        Uiso   0.0183(10)    2
O 
O8      0.2318(14)   0.2045(31)   0.1876(7)    1.0        Uiso   0.0183(10)    2
O 
O9      0.3239(16)   0.2423(29)   0.3617(8)    1.0        Uiso   0.0183(10)    2
O 
O10     0.7291(13)   0.6969(28)   0.3226(7)    1.0        Uiso   0.0183(10)    2
O 
O11     0.6846(16)   0.7104(27)   0.1421(8)    1.0        Uiso   0.0183(10)    2
O 
O12     0.5523(16)   0.1152(22)   0.2485(10)   1.0        Uiso   0.0183(10)    2
K 
K1      0.5131(21)   0.1080(26)   0.5064(11)   0.5        Uiso   0.064(6)      2
K 
K2      0.4801(21)   0.5985(25)  -0.0119(10)   0.5        Uiso   0.046(6)      2
Na
Na1     0.8322(15)   0.1996(21)   0.7485(7)    1.0        Uiso   0.025(4)      2
Na
Na2     0.1633(14)   0.7120(23)   0.7540(7)    1.0        Uiso   0.029(4)      2
 
# If you change Z, be sure to change all 3 of the following
_chemical_formula_sum                  "Al3 K1.00 Na2 O12 Si3"
_chemical_formula_weight               442.27
_cell_formula_units_Z                  2

# MOLECULAR GEOMETRY

loop_
      _geom_bond_atom_site_label_1
      _geom_bond_atom_site_label_2
      _geom_bond_distance
      _geom_bond_site_symmetry_1
      _geom_bond_site_symmetry_2
      _geom_bond_publ_flag
   ?   ?   ?   ?   ?   ?

loop_
      _geom_angle_atom_site_label_1
      _geom_angle_atom_site_label_2
      _geom_angle_atom_site_label_3
      _geom_angle
      _geom_angle_site_symmetry_1
      _geom_angle_site_symmetry_2
      _geom_angle_site_symmetry_3
      _geom_angle_publ_flag
   ?   ?   ?   ?   ?   ?   ?   ?

# Powder diffraction data for histogram  1
#==============================================================================
# 9. INSTRUMENT CHARACTERIZATION

_exptl_special_details
; ?
;

# if regions of the data are excluded, the reason(s) are supplied here:
_pd_proc_info_excluded_regions
; ?
;

# The following item is used to identify the equipment used to record
# the powder pattern when the diffractogram was measured at a laboratory
# other than the authors' home institution, e.g. when neutron or synchrotron
# radiation is used.

_pd_instr_location
; ?
;
_pd_calibration_special_details           # description of the method used
                                          # to calibrate the instrument
; ?
;

_diffrn_ambient_temperature       ?
_diffrn_source                    ?
_diffrn_source_target             ?
_diffrn_source_type               ?
_diffrn_measurement_device_type   ?
_diffrn_detector                  ?
_diffrn_detector_type             ?       # make or model of detector

_pd_meas_scan_method              ?       # options are 'step', 'cont',
                                          # 'tof', 'fixed' or
                                          # 'disp' (= dispersive)
_pd_meas_special_details
;  ?
;

# The following two items identify the program(s) used (if appropriate).
_computing_data_collection        ?
_computing_data_reduction         ?

# Describe any processing performed on the data, prior to refinement.
# For example: a manual Lp correction or a precomputed absorption correction
_pd_proc_info_data_reduction      ?

# The following item is used for angular dispersive measurements only.

_diffrn_radiation_monochromator   ?

# The following items are used to define the size of the instrument.
# Not all distances are appropriate for all instrument types.

_pd_instr_dist_src/mono           ?
_pd_instr_dist_mono/spec          ?
_pd_instr_dist_src/spec           ?
_pd_instr_dist_spec/anal          ?
_pd_instr_dist_anal/detc          ?
_pd_instr_dist_spec/detc          ?

# 10. Specimen size and mounting information

# The next three fields give the specimen dimensions in mm.  The equatorial
# plane contains the incident and diffracted beam.

_pd_spec_size_axial               ?       # perpendicular to
                                          # equatorial plane

_pd_spec_size_equat               ?       # parallel to
                                          # scattering vector
                                          # in transmission

_pd_spec_size_thick               ?       # parallel to
                                          # scattering vector
                                          # in reflection

_pd_spec_mounting                         # This field should be
                                          # used to give details of the
                                          # container.
; ?
;

_pd_spec_mount_mode               ?       # options are 'reflection'
                                          # or 'transmission'

_pd_spec_shape                    ?       # options are 'cylinder'
                                          # 'flat_sheet' or 'irregular'


loop_ _atom_type_symbol
      _atom_type_number_in_cell
      _atom_type_scat_dispersion_real
      _atom_type_scat_dispersion_imag
      _atom_type_scat_Cromer_Mann_a1
      _atom_type_scat_Cromer_Mann_a2
      _atom_type_scat_Cromer_Mann_a3
      _atom_type_scat_Cromer_Mann_a4
      _atom_type_scat_Cromer_Mann_b1
      _atom_type_scat_Cromer_Mann_b2
      _atom_type_scat_Cromer_Mann_b3
      _atom_type_scat_Cromer_Mann_b4
      _atom_type_scat_Cromer_Mann_c
      _atom_type_scat_source
  Al         6.0    0.000    0.000
 6.42020 3.03870 1.90020 0.74260 1.59360 31.5472 1.96460 85.0886 1.11510 
  International_Tables_Vol_C
  Si         6.0    0.000    0.000
 6.29150 2.43860 3.03530 32.3337 1.98910 0.67850 1.54100 81.6937 1.14070 
  International_Tables_Vol_C
  O         24.0    0.000    0.000
 3.04850 13.2771 2.28680 5.70110 1.54630 0.32390 0.86700 32.9089 0.25080 
  International_Tables_Vol_C
  K          2.0    0.000    0.000
 8.21860 12.7949 7.43980 0.77480 1.05190 213.187 0.86590 41.6841 1.42280 
  International_Tables_Vol_C
  Na         4.0    0.000    0.000
 4.76260 3.28500 3.17360 8.84220 1.26740 0.31360 1.11280 129.424 0.67600 
  International_Tables_Vol_C
_diffrn_radiation_probe                x-ray
_diffrn_radiation_polarisn_ratio       0.55
_diffrn_radiation_wavelength           1.540598
_diffrn_radiation_type                 ?
_pd_proc_ls_prof_R_factor              0.0675
_pd_proc_ls_prof_wR_factor             0.0906
_pd_proc_ls_prof_wR_expected           0.0269
_refine_ls_R_Fsqd_factor               0.09986

_pd_proc_ls_background_function
;   GSAS Background function number 1 with 18 terms.
 Shifted Chebyshev function of 1st kind
      1:    830.383     2:   -507.442     3:    66.5922     4:    99.8823    
      5:   -95.8405     6:   -9.37856     7:    55.8827     8:   -33.9861    
      9:   -7.52103    10:    3.97114    11:   -12.9378    12:    2.53401    
     13:    9.45159    14:    4.96568    15:   -12.9247    16:    8.73025    
     17:   -2.44358    18:    1.54951    
;

_exptl_absorpt_process_details
;   GSAS Absorption/surface roughness correction: function number 0
 Debye-Scherrer absorption correction
Term (= MU.r/wave) =     0.36300    
Correction is not refined.
;
_exptl_absorpt_correction_T_min        0.39449
_exptl_absorpt_correction_T_max        0.42001
# Extinction correction
_gsas_exptl_extinct_corr_T_min         1.00000
_gsas_exptl_extinct_corr_T_max         1.00000

_pd_proc_ls_profile_function
;
 CW Profile function number 4 with  27 terms
 Pseudovoigt profile coefficients as parameterized in
 P. Thompson, D.E. Cox & J.B. Hastings (1987). J. Appl. Cryst.,20,79-83.
 Asymmetry correction of L.W. Finger, D.E. Cox & A. P. Jephcoat (1994).
 J. Appl. Cryst.,27,892-900.
 Microstrain broadening by P.W. Stephens,  (1999). J. Appl. Cryst.,32,281-289.
 #1(GU)   =   67.960 #2(GV)   =    0.000 #3(GW)   =    8.910
 #4(GP)   =    0.000 #5(LX)   =    2.703 #6(ptec) =     0.00
 #7(trns) =     0.00 #8(shft) =   0.0000 #9(sfec) =     0.00
 #10(S/L) =   0.0267 #11(H/L) =   0.0206 #12(eta) =   1.0000
 Peak tails are ignored  where the intensity is below 0.0010 times the peak
   Aniso. broadening axis   0.0   0.0   1.0
;
_pd_proc_ls_peak_cutoff 0.00100
_pd_proc_info_datetime                 2021-11-25T16:56:56
_pd_calc_method                        "Rietveld Refinement"

#---- raw/calc data loop -----
_pd_meas_2theta_range_min              9.0
_pd_meas_2theta_range_max              89.99
_pd_meas_2theta_range_inc              0.01
_pd_proc_2theta_range_min              8.97916
_pd_proc_2theta_range_max              89.96916
_pd_proc_2theta_range_inc              0.01

loop_
      _pd_meas_counts_total
      _pd_proc_ls_weight
      _pd_proc_intensity_bkg_calc
      _pd_calc_intensity_total
  1281.0     0.000781    1259.81567   1259.81567
  1282.0     0.000780    1261.26392   1261.26392
  1228.0     0.000814    1262.67908   1262.67908
  1240.0     0.000806    1264.06165   1264.06165
  1248.0     0.000801    1265.41211   1265.41211
  1214.0     0.000824    1266.73071   1266.73071
  1288.0     0.000776    1268.01807   1268.01807
  1302.0     0.000768    1269.27429   1269.27429
  1317.0     0.000759    1270.50000   1270.50000
  1315.0     0.000760    1271.69556   1271.69556
  1302.0     0.000768    1272.86121   1272.86121
  1318.0     0.000759    1273.99744   1273.99744
  1347.0     0.000742    1275.10461   1275.10461
  1304.0     0.000767    1276.18323   1276.18323
  1244.0     0.000804    1277.23352   1277.23352
  1303.0     0.000767    1278.25574   1278.25574
  1380.0     0.000725    1279.25049   1279.25049
  1300.0     0.000769    1280.21814   1280.21814
  1275.0     0.000784    1281.15881   1281.15881
  1346.0     0.000743    1282.07312   1282.07312
  1258.0     0.000795    1282.96118   1282.96118
  1314.0     0.000761    1283.82361   1283.82361
  1272.0     0.000786    1284.66052   1284.66052
  1282.0     0.000780    1285.47229   1285.47229
  1255.0     0.000797    1286.25940   1286.25940
  1290.0     0.000775    1287.02209   1287.02209
  1304.0     0.000767    1287.76074   1287.76074
  1297.0     0.000771    1288.47571   1288.47571
  1304.0     0.000767    1289.16711   1289.16711
  1310.0     0.000763    1289.83545   1289.83545
  1296.0     0.000772    1290.48120   1290.48120
  1320.0     0.000758    1291.10437   1291.10437
  1328.0     0.000753    1291.70544   1291.70544
  1226.0     0.000816    1292.28467   1292.28467
  1258.0     0.000795    1292.84253   1292.84253
  1294.0     0.000773    1293.37915   1293.37915
  1262.0     0.000792    1293.89478   1293.89478
  1216.0     0.000822    1294.38989   1294.38989
  1299.0     0.000770    1294.86475   1294.86475
  1273.0     0.000786    1295.31958   1295.31958
  1248.0     0.000801    1295.75476   1295.75476
  1372.0     0.000729    1296.17053   1296.17053
  1301.0     0.000769    1296.56714   1296.56714
  1297.0     0.000771    1296.94507   1296.94507
  1307.0     0.000765    1297.30432   1297.30432
  1319.0     0.000758    1297.64539   1297.64539
  1277.0     0.000783    1297.96838   1297.96838
  1291.0     0.000775    1298.27368   1298.27368
  1301.0     0.000769    1298.56165   1298.56165
  1304.0     0.000767    1298.83240   1298.83240
  1306.0     0.000766    1299.08618   1299.08618
  1293.0     0.000773    1299.32336   1299.32336
  1345.0     0.000743    1299.54419   1299.54419
  1342.0     0.000745    1299.74890   1299.74890
  1235.0     0.000810    1299.93774   1299.93774
  1260.0     0.000794    1300.11096   1300.11096
  1219.0     0.000820    1300.26880   1300.26880
  1286.0     0.000778    1300.41162   1300.41162
  1296.0     0.000772    1300.53955   1300.53955
  1293.0     0.000773    1300.65283   1300.65283
  1296.0     0.000772    1300.75183   1300.75183
  1348.0     0.000742    1300.83667   1300.83667
  1368.0     0.000731    1300.90759   1300.90759
  1299.0     0.000770    1300.96484   1300.96484
  1317.0     0.000759    1301.00867   1301.00867
  1282.0     0.000780    1301.03931   1301.03931
  1301.0     0.000769    1301.05701   1301.05701
  1225.0     0.000816    1301.06189   1301.06189
  1256.0     0.000796    1301.05432   1301.05432
  1360.0     0.000735    1301.03442   1301.03442
  1296.0     0.000772    1301.00244   1301.00244
  1294.0     0.000773    1300.95862   1300.95862
  1331.0     0.000751    1300.90320   1300.90320
  1292.0     0.000774    1300.83630   1300.83630
  1281.0     0.000781    1300.75818   1300.75818
  1287.0     0.000777    1300.66895   1300.66895
  1254.0     0.000797    1300.56897   1300.56897
  1304.0     0.000767    1300.45837   1300.45837
  1301.0     0.000769    1300.33740   1300.33740
  1286.0     0.000778    1300.20618   1300.20618
  1262.0     0.000792    1300.06494   1300.06494
  1273.0     0.000786    1299.91394   1299.91394
  1294.0     0.000773    1299.75330   1299.75330
  1209.0     0.000827    1299.58325   1299.58325
  1249.0     0.000801    1299.40381   1299.40381
  1270.0     0.000787    1299.21545   1299.21545
  1266.0     0.000790    1299.01819   1299.01819
  1294.0     0.000773    1298.81226   1298.81226
  1257.0     0.000796    1298.59778   1298.59778
  1253.0     0.000798    1298.37500   1298.37500
  1300.0     0.000769    1298.14404   1298.14404
  1313.0     0.000762    1297.90515   1297.90515
  1354.0     0.000739    1297.65833   1297.65833
  1341.0     0.000746    1297.40393   1297.40393
  1267.0     0.000789    1297.14221   1297.14221
  1257.0     0.000796    1296.87305   1296.87305
  1305.0     0.000766    1296.59680   1296.59680
  1296.0     0.000772    1296.31348   1296.31348
  1286.0     0.000778    1296.02356   1296.02356
  1340.0     0.000746    1295.72681   1295.72681
  1313.0     0.000762    1295.42371   1295.42371
  1323.0     0.000756    1295.11414   1295.11414
  1297.0     0.000771    1294.79846   1303.46448
  1314.0     0.000761    1294.47681   1303.30554
  1269.0     0.000788    1294.14917   1303.14539
  1266.0     0.000790    1293.81592   1302.98438
  1259.0     0.000794    1293.47705   1302.82288
  1326.0     0.000754    1293.13281   1302.66113
  1307.0     0.000765    1292.78320   1302.49939
  1294.0     0.000773    1292.42859   1302.33838
  1352.0     0.000740    1292.06885   1302.17810
  1316.0     0.000760    1291.70435   1302.01917
  1333.0     0.000750    1291.33496   1301.86182
  1300.0     0.000769    1290.96118   1301.70654
  1290.0     0.000775    1290.58289   1301.55383
  1339.0     0.000747    1290.20020   1301.40381
  1308.0     0.000765    1289.81335   1301.25732
  1339.0     0.000747    1289.42249   1301.11450
  1271.0     0.000787    1289.02771   1300.97620
  1306.0     0.000766    1288.62915   1300.84253
  1390.0     0.000719    1288.22693   1300.71423
  1342.0     0.000745    1287.82104   1300.59167
  1289.0     0.000776    1287.41187   1300.47559
  1363.0     0.000734    1286.99927   1300.36646
  1285.0     0.000778    1286.58362   1300.26501
  1336.0     0.000749    1286.16479   1300.17175
  1340.0     0.000746    1285.74304   1300.08740
  1266.0     0.000790    1285.31848   1300.01270
  1278.0     0.000782    1284.89111   1299.94824
  1277.0     0.000783    1284.46118   1299.89502
  1210.0     0.000826    1284.02881   1299.85376
  1275.0     0.000784    1283.59399   1299.82532
  1324.0     0.000755    1283.15686   1299.81055
  1274.0     0.000785    1282.71765   1299.81067
  1231.0     0.000812    1282.27637   1299.82642
  1316.0     0.000760    1281.83301   1299.85901
  1282.0     0.000780    1281.38782   1299.90955
  1351.0     0.000740    1280.94092   1299.97937
  1328.0     0.000753    1280.49231   1300.06982
  1301.0     0.000769    1280.04211   1300.18213
  1279.0     0.000782    1279.59058   1300.31812
  1388.0     0.000720    1279.13757   1300.47913
  1344.0     0.000744    1278.68323   1300.66687
  1334.0     0.000750    1278.22778   1300.88342
  1321.0     0.000757    1277.77136   1301.13086
  1285.0     0.000778    1277.31372   1301.41101
  1360.0     0.000735    1276.85522   1301.72644
  1282.0     0.000780    1276.39600   1302.07971
  1279.0     0.000782    1275.93604   1302.47363
  1326.0     0.000754    1275.47534   1302.91101
  1260.0     0.000794    1275.01416   1303.39526
  1320.0     0.000758    1274.55249   1303.93005
  1334.0     0.000750    1274.09033   1304.51892
  1324.0     0.000755    1273.62793   1305.16663
  1219.0     0.000820    1273.16541   1305.87769
  1272.0     0.000786    1272.70251   1316.65356
  1308.0     0.000765    1272.23962   1317.69336
  1287.0     0.000777    1271.77686   1318.81921
  1332.0     0.000751    1271.31409   1320.03796
  1350.0     0.000741    1270.85144   1321.35803
  1385.0     0.000722    1270.38892   1322.78833
  1392.0     0.000718    1269.92688   1324.33911
  1368.0     0.000731    1269.46509   1326.02161
  1385.0     0.000722    1269.00378   1327.84875
  1366.0     0.000732    1268.54297   1329.83508
  1304.0     0.000767    1268.08289   1331.99719
  1315.0     0.000760    1267.62329   1334.35400
  1374.0     0.000728    1267.16443   1336.92761
  1359.0     0.000736    1266.70630   1339.74341
  1412.0     0.000708    1266.24902   1342.83167
  1342.0     0.000745    1265.79272   1346.22900
  1412.0     0.000708    1265.33728   1349.98059
  1461.0     0.000684    1264.88293   1354.14734
  1492.0     0.000670    1264.42969   1358.81433
  1425.0     0.000702    1263.97754   1364.10815
  1470.0     0.000680    1263.52661   1370.22522
  1488.0     0.000672    1263.07703   1377.46997
  1523.0     0.000657    1262.62866   1386.30444
  1540.0     0.000649    1262.18176   1397.40344
  1535.0     0.000651    1261.73621   1411.69629
  1569.0     0.000637    1261.29211   1430.38550
  1570.0     0.000637    1260.84961   1454.91492
  1623.0     0.000616    1260.40869   1486.87732
  1656.0     0.000604    1259.96948   1527.84229
  1784.0     0.000561    1259.53186   1579.12317
  1790.0     0.000559    1259.09595   1641.57751
  1781.0     0.000561    1258.66199   1715.57849
  1908.0     0.000524    1258.22974   1801.04993
  1941.0     0.000515    1257.79932   1897.51221
  2029.0     0.000493    1257.37097   2004.42590
  2068.0     0.000484    1256.94446   2121.37280
  2252.0     0.000444    1256.52002   2248.04419
  2158.0     0.000463    1256.09766   2384.52808
  2425.0     0.000412    1255.67737   2531.14697
  2536.0     0.000394    1255.25940   2688.50781
  2702.0     0.000370    1254.84338   2857.62500
  2768.0     0.000361    1254.42969   3039.65796
  2927.0     0.0003416   1254.01819   3236.23242
  3136.0     0.0003189   1253.60913   3449.27075
  3316.0     0.0003016   1253.20227   3681.17114
  3612.0     0.0002769   1252.79797   3935.02686
  4044.0     0.0002473   1252.39587   4214.69092
  4316.0     0.0002317   1251.99634   4525.35986
  4595.0     0.0002176   1251.59937   4873.84375
  4947.0     0.0002021   1251.20483   5269.35400
  5430.0     0.0001842   1250.81287   5723.89502
  6074.0     0.0001646   1250.42346   6252.39111
  6910.0     0.0001447   1250.03674   6871.38721
  7719.0     0.0001296   1249.65259   7595.59375
  8920.0     0.0001121   1249.27112   8431.31445
  9965.0     0.0001004   1248.89246   9366.97266
  11230.0    0.0000890   1248.51648   10362.51270
  12281.0    0.0000814   1248.14331   11341.30859
  13345.0    0.0000749   1247.77283   12188.99902
  13934.0    0.0000718   1247.40527   12762.68457
  13915.0    0.0000719   1247.04065   12913.48145
  13763.0    0.0000727   1246.67883   12527.58008
  12612.0    0.0000793   1246.31982   11586.16309
  10850.0    0.0000922   1245.96387   10207.21289
  9381.0     0.0001066   1245.61084   8608.31934
  7378.0     0.0001355   1245.26074   7012.07959
  5675.0     0.0001762   1244.91370   5580.44434
  4631.0     0.0002159   1244.56970   4400.92041
  3540.0     0.0002825   1244.22876   3497.50757
  2851.0     0.000351    1243.89087   2848.94092
  2447.0     0.000409    1243.55603   2408.66040
  2050.0     0.000488    1243.22424   2122.60986
  1936.0     0.000517    1242.89563   1941.66687
  1851.0     0.000540    1242.57031   1827.70557
  1683.0     0.000594    1242.24805   1754.52783
  1706.0     0.000586    1241.92896   1705.88098
  1596.0     0.000627    1241.61304   1672.57288
  1713.0     0.000584    1241.30042   1649.89978
  1633.0     0.000612    1240.99097   1635.83545
  1594.0     0.000627    1240.68481   1629.94128
  1697.0     0.000589    1240.38184   1632.76990
  1720.0     0.000581    1240.08228   1645.52637
  1803.0     0.000555    1239.78589   1669.81616
  1873.0     0.000534    1239.49292   1707.37415
  1893.0     0.000528    1239.20325   1759.74060
  1946.0     0.000514    1238.91687   1827.96594
  1979.0     0.000505    1238.63379   1912.50513
  2012.0     0.000497    1238.35425   2013.24524
  2152.0     0.000465    1238.07788   2129.58740
  2238.0     0.000447    1237.80505   2260.82471
  2344.0     0.000427    1237.53552   2406.38379
  2517.0     0.000397    1237.26941   2565.90674
  2609.0     0.000383    1237.00671   2739.52368
  2694.0     0.000371    1236.74744   2927.71216
  2934.0     0.0003408   1236.49158   3131.45190
  3061.0     0.0003267   1236.23914   3352.18945
  3361.0     0.0002975   1235.99023   3591.79956
  3526.0     0.0002836   1235.74475   3852.80078
  3803.0     0.0002630   1235.50269   4138.28223
  3958.0     0.0002527   1235.26404   4452.32324
  4240.0     0.0002358   1235.02893   4800.15332
  4661.0     0.0002145   1234.79724   5188.77881
  5143.0     0.0001944   1234.56921   5627.56445
  5900.0     0.0001695   1234.34448   6128.99121
  6692.0     0.0001494   1234.12329   6709.09375
  7445.0     0.0001343   1233.90564   7386.95654
  8288.0     0.0001207   1233.69141   8182.18359
  9250.0     0.0001081   1233.48071   9109.19922
  10833.0    0.0000923   1233.27356   10167.76660
  12362.0    0.0000809   1233.06982   11330.73633
  13821.0    0.0000724   1232.86975   12532.14258
  16523.0    0.0000605   1232.67310   13660.58594
  17572.0    0.0000569   1232.47998   14562.78809
  18346.0    0.0000545   1232.29028   15060.87305
  18431.0    0.0000543   1232.10425   14987.62305
  16936.0    0.0000590   1231.92163   14246.31445
  14706.0    0.0000680   1231.74255   12881.63574
  11760.0    0.0000850   1231.56689   11095.31445
  8907.0     0.0001123   1231.39490   9161.89063
  6630.0     0.0001508   1231.22632   7321.00879
  4954.0     0.0002019   1231.06128   5727.96289
  3557.0     0.0002811   1230.89978   4453.47607
  2825.0     0.000354    1230.74182   3501.39648
  2341.0     0.000427    1230.58728   2831.58813
  1940.0     0.000515    1230.43628   2383.00562
  1722.0     0.000581    1230.28870   2092.51953
  1615.0     0.000619    1230.14478   1906.52686
  1556.0     0.000643    1230.00427   1785.41101
  1465.0     0.000683    1229.86719   1702.92700
  1390.0     0.000719    1229.73364   1643.15759
  1397.0     0.000716    1229.60364   1597.07581
  1417.0     0.000706    1229.47705   1559.75769
  1360.0     0.000735    1229.35388   1528.51672
  1360.0     0.000735    1229.23425   1501.81592
  1365.0     0.000733    1229.11804   1478.69556
  1304.0     0.000767    1229.00537   1458.49597
  1343.0     0.000745    1228.89600   1440.72583
  1398.0     0.000715    1228.79016   1425.00244
  1359.0     0.000736    1228.68774   1411.01868
  1340.0     0.000746    1228.58875   1398.52380
  1297.0     0.000771    1228.49329   1387.31177
  1321.0     0.000757    1228.40112   1377.21082
  1335.0     0.000749    1228.31238   1368.07813
  1325.0     0.000755    1228.22705   1359.79321
  1333.0     0.000750    1228.14514   1352.25415
  1275.0     0.000784    1228.06653   1345.37378
  1328.0     0.000753    1227.99133   1339.07776
  1373.0     0.000728    1227.91956   1333.30176
  1327.0     0.000754    1227.85107   1327.99023
  1263.0     0.000792    1227.78601   1323.09497
  1282.0     0.000780    1227.72424   1318.57422
  1304.0     0.000767    1227.66577   1314.39148
  1293.0     0.000773    1227.61072   1310.51465
  1310.0     0.000763    1227.55884   1306.91638
  1414.0     0.000707    1227.51038   1303.57227
  1319.0     0.000758    1227.46521   1300.46094
  1339.0     0.000747    1227.42322   1297.56372
  1297.0     0.000771    1227.38464   1294.86487
  1343.0     0.000745    1227.34924   1292.35034
  1309.0     0.000764    1227.31714   1290.00867
  1272.0     0.000786    1227.28821   1287.83081
  1318.0     0.000759    1227.26245   1285.80933
  1299.0     0.000770    1227.23999   1283.93994
  1269.0     0.000788    1227.22070   1282.21924
  1337.0     0.000748    1227.20471   1280.64502
  1329.0     0.000752    1227.19177   1279.21130
  1333.0     0.000750    1227.18201   1277.90881
  1313.0     0.000762    1227.17542   1276.71753
  1373.0     0.000728    1227.17200   1275.60571
  1331.0     0.000751    1227.17175   1274.52759
  1353.0     0.000739    1227.17456   1273.42712
  1355.0     0.000738    1227.18042   1272.24548
  1308.0     0.000765    1227.18945   1270.93481
  1291.0     0.000775    1227.20154   1261.92334
  1342.0     0.000745    1227.21667   1260.48230
  1319.0     0.000758    1227.23486   1258.99731
  1287.0     0.000777    1227.25610   1257.54761
  1278.0     0.000782    1227.28040   1256.19287
  1265.0     0.000791    1227.30762   1254.96631
  1255.0     0.000797    1227.33789   1253.87793
  1305.0     0.000766    1227.37122   1252.92017
  1330.0     0.000752    1227.40735   1252.07520
  1278.0     0.000782    1227.44653   1251.32239
  1249.0     0.000801    1227.48865   1250.64148
  1308.0     0.000765    1227.53369   1250.01648
  1244.0     0.000804    1227.58167   1249.43567
  1302.0     0.000768    1227.63245   1248.89099
  1319.0     0.000758    1227.68616   1248.37769
  1262.0     0.000792    1227.74280   1247.89209
  1296.0     0.000772    1227.80212   1247.43188
  1252.0     0.000799    1227.86450   1246.99573
  1271.0     0.000787    1227.92957   1246.58203
  1223.0     0.000818    1227.99744   1246.18958
  1272.0     0.000786    1228.06812   1245.81750
  1277.0     0.000783    1228.14148   1245.46472
  1213.0     0.000824    1228.21777   1245.13062
  1248.0     0.000801    1228.29663   1244.81396
  1320.0     0.000758    1228.37830   1244.51465
  1330.0     0.000752    1228.46265   1244.23145
  1255.0     0.000797    1228.54980   1243.96411
  1223.0     0.000818    1228.63953   1243.71191
  1149.0     0.000870    1228.73193   1243.47437
  1213.0     0.000824    1228.82703   1243.25134
  1437.0     0.000696    1228.92468   1243.04211
  1349.0     0.000741    1229.02490   1242.84680
  1260.0     0.000794    1229.12781   1242.66553
  1340.0     0.000746    1229.23328   1242.49854
  1232.0     0.000812    1229.34131   1242.34607
  1273.0     0.000786    1229.45190   1242.20886
  1268.0     0.000789    1229.56506   1242.08728
  1235.0     0.000810    1229.68066   1241.98230
  1273.0     0.000786    1229.79871   1241.89380
  1284.0     0.000779    1229.91943   1241.82263
  1229.0     0.000814    1230.04248   1241.76794
  1298.0     0.000770    1230.16797   1241.72937
  1332.0     0.000751    1230.29590   1241.70691
  1318.0     0.000759    1230.42627   1241.70020
  1334.0     0.000750    1230.55896   1241.70874
  1308.0     0.000765    1230.69409   1241.73254
  1290.0     0.000775    1230.83154   1241.77197
  1259.0     0.000794    1230.97144   1241.82764
  1303.0     0.000767    1231.11353   1241.90027
  1257.0     0.000796    1231.25806   1241.99133
  1329.0     0.000752    1231.40466   1242.10217
  1245.0     0.000803    1231.55383   1242.23608
  1212.0     0.000825    1231.70508   1242.39575
  1200.0     0.000833    1231.85864   1242.58643
  1233.0     0.000811    1232.01428   1233.98145
  1222.0     0.000818    1232.17224   1234.40259
  1268.0     0.000789    1232.33240   1234.87158
  1220.0     0.000820    1232.49475   1235.39392
  1275.0     0.000784    1232.65918   1235.97009
  1281.0     0.000781    1232.82581   1236.59058
  1271.0     0.000787    1232.99451   1237.23120
  1254.0     0.000797    1233.16528   1237.85046
  1262.0     0.000792    1233.33826   1238.39075
  1293.0     0.000773    1233.51318   1238.78394
  1232.0     0.000812    1233.69019   1238.96521
  1256.0     0.000796    1233.86926   1238.89368
  1289.0     0.000776    1234.05029   1238.58020
  1227.0     0.000815    1234.23328   1238.09644
  1290.0     0.000775    1234.41833   1237.54590
  1300.0     0.000769    1234.60535   1237.02222
  1202.0     0.000832    1234.79431   1236.58875
  1243.0     0.000805    1234.98511   1236.27600
  1225.0     0.000816    1235.17786   1236.08838
  1328.0     0.000753    1235.37256   1236.01306
  1245.0     0.000803    1235.56909   1236.02722
  1236.0     0.000809    1235.76746   1236.10693
  1259.0     0.000794    1235.96765   1236.23108
  1229.0     0.000814    1236.16980   1236.38403
  1263.0     0.000792    1236.37354   1236.55457
  1233.0     0.000811    1236.57922   1236.73657
  1274.0     0.000785    1236.78662   1236.92590
  1362.0     0.000734    1236.99573   1237.12048
  1247.0     0.000802    1237.20667   1237.31934
  1240.0     0.000806    1237.41919   1237.52161
  1338.0     0.000747    1237.63342   1237.72717
  1270.0     0.000787    1237.84949   1237.93542
  1250.0     0.000800    1238.06714   1238.14636
  1215.0     0.000823    1238.28638   1238.35962
  1232.0     0.000812    1238.50720   1238.57507
  1263.0     0.000792    1238.72974   1238.78882
  1203.0     0.000831    1238.95386   1239.00879
  1292.0     0.000774    1239.17944   1239.23071
  1282.0     0.000780    1239.40674   1239.45459
  1310.0     0.000763    1239.63550   1239.68030
  1286.0     0.000778    1239.86584   1239.90796
  1318.0     0.000759    1240.09766   1240.13721
  1232.0     0.000812    1240.33093   1240.36816
  1286.0     0.000778    1240.56567   1240.60083
  1309.0     0.000764    1240.80188   1240.83508
  1281.0     0.000781    1241.03955   1241.07104
  1279.0     0.000782    1241.27869   1241.30859
  1233.0     0.000811    1241.51917   1241.54749
  1260.0     0.000794    1241.76099   1241.78796
  1217.0     0.000822    1242.00427   1242.02991
  1215.0     0.000823    1242.24878   1242.27319
  1233.0     0.000811    1242.49475   1242.51807
  1220.0     0.000820    1242.74207   1242.76440
  1272.0     0.000786    1242.99060   1243.01196
  1233.0     0.000811    1243.24036   1243.26074
  1262.0     0.000792    1243.49146   1243.51099
  1249.0     0.000801    1243.74390   1243.76270
  1205.0     0.000830    1243.99744   1244.01550
  1209.0     0.000827    1244.25220   1244.26953
  1198.0     0.000835    1244.50830   1244.52490
  1229.0     0.000814    1244.76550   1244.78149
  1276.0     0.000784    1245.02380   1245.03918
  1279.0     0.000782    1245.28333   1245.29822
  1235.0     0.000810    1245.54407   1245.55835
  1242.0     0.000805    1245.80579   1245.81958
  1222.0     0.000818    1246.06873   1246.08203
  1284.0     0.000779    1246.33264   1246.34558
  1266.0     0.000790    1246.59766   1246.61011
  1238.0     0.000808    1246.86377   1246.87585
  1302.0     0.000768    1247.13086   1247.14246
  1262.0     0.000792    1247.39905   1247.41028
  1235.0     0.000810    1247.66821   1247.67920
  1183.0     0.000845    1247.93835   1247.94897
  1169.0     0.000855    1248.20947   1248.21973
  1214.0     0.000824    1248.48157   1248.49158
  1239.0     0.000807    1248.75464   1248.76428
  1287.0     0.000777    1249.02856   1249.03796
  1250.0     0.000800    1249.30347   1249.31262
  1294.0     0.000773    1249.57922   1249.58813
  1259.0     0.000794    1249.85583   1249.86450
  1275.0     0.000784    1250.13330   1250.14172
  1269.0     0.000788    1250.41174   1250.41992
  1230.0     0.000813    1250.69092   1250.69885
  1275.0     0.000784    1250.97095   1250.97864
  1310.0     0.000763    1251.25171   1251.25928
  1268.0     0.000789    1251.53333   1251.54065
  1268.0     0.000789    1251.81567   1251.82288
  1306.0     0.000766    1252.09888   1252.10583
  1283.0     0.000779    1252.38269   1252.38953
  1250.0     0.000800    1252.66736   1252.67395
  1303.0     0.000767    1252.95264   1252.95911
  1252.0     0.000799    1253.23865   1253.24500
  1305.0     0.000766    1253.52539   1253.53162
  1270.0     0.000787    1253.81274   1253.81873
  1247.0     0.000802    1254.10083   1254.10669
  1328.0     0.000753    1254.38953   1254.39526
  1295.0     0.000772    1254.67871   1254.68433
  1264.0     0.000791    1254.96863   1254.97412
  1298.0     0.000770    1255.25916   1255.26453
  1327.0     0.000754    1255.55029   1255.55554
  1321.0     0.000757    1255.84192   1255.84192
  1221.0     0.000819    1256.13403   1256.13403
  1219.0     0.000820    1256.42688   1256.42688
  1326.0     0.000754    1256.72009   1256.72009
  1310.0     0.000763    1257.01392   1257.01392
  1272.0     0.000786    1257.30811   1257.30811
  1281.0     0.000781    1257.60291   1257.60291
  1397.0     0.000716    1257.89819   1257.89819
  1367.0     0.000732    1258.19385   1258.19385
  1365.0     0.000733    1258.48999   1258.48999
  1369.0     0.000730    1258.78650   1258.78650
  1381.0     0.000724    1259.08350   1259.08350
  1341.0     0.000746    1259.38086   1259.38086
  1356.0     0.000737    1259.67859   1259.67859
  1337.0     0.000748    1259.97668   1259.97668
  1322.0     0.000756    1260.27527   1260.27527
  1355.0     0.000738    1260.57410   1260.57410
  1370.0     0.000730    1260.87329   1260.87329
  1316.0     0.000760    1261.17273   1261.17273
  1377.0     0.000726    1261.47253   1261.47253
  1357.0     0.000737    1261.77271   1261.77271
  1274.0     0.000785    1262.07312   1262.07312
  1293.0     0.000773    1262.37378   1262.37378
  1248.0     0.000801    1262.67468   1262.67468
  1264.0     0.000791    1262.97583   1262.97583
  1412.0     0.000708    1263.27722   1263.27722
  1332.0     0.000751    1263.57886   1263.57886
  1326.0     0.000754    1263.88074   1263.88074
  1302.0     0.000768    1264.18274   1264.18274
  1326.0     0.000754    1264.48486   1264.48486
  1311.0     0.000763    1264.78735   1264.78735
  1273.0     0.000786    1265.08984   1265.08984
  1288.0     0.000776    1265.39258   1265.39258
  1279.0     0.000782    1265.69531   1265.69531
  1298.0     0.000770    1265.99829   1265.99829
  1233.0     0.000811    1266.30139   1266.30139
  1223.0     0.000818    1266.60449   1266.60449
  1317.0     0.000759    1266.90784   1266.90784
  1262.0     0.000792    1267.21106   1267.21106
  1236.0     0.000809    1267.51453   1267.51453
  1301.0     0.000769    1267.81799   1267.81799
  1300.0     0.000769    1268.12146   1268.12146
  1299.0     0.000770    1268.42505   1268.42505
  1300.0     0.000769    1268.72852   1268.72852
  1292.0     0.000774    1269.03210   1269.03210
  1271.0     0.000787    1269.33569   1269.33569
  1220.0     0.000820    1269.63916   1269.63916
  1296.0     0.000772    1269.94275   1269.94275
  1238.0     0.000808    1270.24622   1270.24622
  1233.0     0.000811    1270.54968   1270.54968
  1303.0     0.000767    1270.85303   1270.85303
  1240.0     0.000806    1271.15637   1271.15637
  1166.0     0.000858    1271.45959   1271.45959
  1228.0     0.000814    1271.76282   1271.76282
  1239.0     0.000807    1272.06580   1272.06580
  1278.0     0.000782    1272.36877   1272.36877
  1206.0     0.000829    1272.67163   1272.67163
  1237.0     0.000808    1272.97437   1272.97437
  1216.0     0.000822    1273.27686   1273.27686
  1332.0     0.000751    1273.57935   1273.57935
  1261.0     0.000793    1273.88159   1273.88159
  1236.0     0.000809    1274.18372   1274.18372
  1290.0     0.000775    1274.48560   1274.48560
  1233.0     0.000811    1274.78735   1274.78735
  1243.0     0.000805    1275.08887   1275.08887
  1215.0     0.000823    1275.39026   1275.39026
  1228.0     0.000814    1275.69128   1275.69128
  1224.0     0.000817    1275.99219   1275.99219
  1231.0     0.000812    1276.29285   1276.29285
  1251.0     0.000799    1276.59326   1276.59326
  1238.0     0.000808    1276.89343   1277.20923
  1313.0     0.000762    1277.19336   1277.51489
  1180.0     0.000847    1277.49292   1277.82043
  1249.0     0.000801    1277.79236   1278.12598
  1255.0     0.000797    1278.09143   1278.43127
  1259.0     0.000794    1278.39014   1278.73645
  1298.0     0.000770    1278.68860   1279.04150
  1317.0     0.000759    1278.98682   1279.34656
  1285.0     0.000778    1279.28467   1279.65137
  1257.0     0.000796    1279.58215   1279.95605
  1245.0     0.000803    1279.87927   1280.26062
  1275.0     0.000784    1280.17615   1280.56519
  1258.0     0.000795    1280.47253   1280.86938
  1230.0     0.000813    1280.76868   1281.17371
  1333.0     0.000750    1281.06445   1281.47791
  1239.0     0.000807    1281.35974   1281.78186
  1240.0     0.000806    1281.65466   1282.08569
  1260.0     0.000794    1281.94922   1282.38940
  1252.0     0.000799    1282.24341   1282.69312
  1278.0     0.000782    1282.53723   1282.99683
  1177.0     0.000850    1282.83057   1283.30029
  1229.0     0.000814    1283.12341   1283.60364
  1197.0     0.000835    1283.41589   1283.90698
  1226.0     0.000816    1283.70789   1284.21021
  1255.0     0.000797    1283.99951   1284.51343
  1292.0     0.000774    1284.29065   1284.81653
  1258.0     0.000795    1284.58130   1285.11963
  1199.0     0.000834    1284.87158   1285.42285
  1232.0     0.000812    1285.16125   1285.72583
  1232.0     0.000812    1285.45056   1286.02905
  1231.0     0.000812    1285.73926   1286.33215
  1229.0     0.000814    1286.02747   1286.63525
  1223.0     0.000818    1286.31531   1286.93860
  1268.0     0.000789    1286.60254   1287.24194
  1253.0     0.000798    1286.88928   1287.54541
  1207.0     0.000829    1287.17542   1287.84888
  1298.0     0.000770    1287.46106   1288.15271
  1238.0     0.000808    1287.74622   1288.45667
  1244.0     0.000804    1288.03088   1288.76099
  1320.0     0.000758    1288.31494   1289.06555
  1216.0     0.000822    1288.59839   1289.37024
  1311.0     0.000763    1288.88135   1289.67554
  1257.0     0.000796    1289.16370   1289.98108
  1301.0     0.000769    1289.44543   1290.28711
  1255.0     0.000797    1289.72668   1290.59375
  1293.0     0.000773    1290.00732   1290.90100
  1239.0     0.000807    1290.28735   1291.20886
  1259.0     0.000794    1290.56677   1291.51746
  1204.0     0.000831    1290.84570   1291.82690
  1303.0     0.000767    1291.12390   1292.13721
  1324.0     0.000755    1291.40149   1292.44849
  1230.0     0.000813    1291.67847   1292.76086
  1191.0     0.000840    1291.95496   1293.07458
  1222.0     0.000818    1292.23071   1293.38953
  1222.0     0.000818    1292.50586   1293.70593
  1250.0     0.000800    1292.78027   1294.02393
  1246.0     0.000803    1293.05408   1294.34387
  1263.0     0.000792    1293.32739   1294.66577
  1261.0     0.000793    1293.59985   1294.98975
  1330.0     0.000752    1293.87170   1295.31616
  1261.0     0.000793    1294.14294   1295.64526
  1256.0     0.000796    1294.41357   1295.97742
  1290.0     0.000775    1294.68347   1296.31262
  1289.0     0.000776    1294.95264   1296.65137
  1301.0     0.000769    1295.22119   1296.99414
  1274.0     0.000785    1295.48901   1297.34131
  1229.0     0.000814    1295.75623   1297.69324
  1298.0     0.000770    1296.02258   1298.05054
  1226.0     0.000816    1296.28833   1298.41382
  1255.0     0.000797    1296.55347   1298.78381
  1270.0     0.000787    1296.81787   1299.16113
  1281.0     0.000781    1297.08142   1299.54675
  1295.0     0.000772    1297.34436   1299.94165
  1276.0     0.000784    1297.60657   1300.34705
  1225.0     0.000816    1297.86816   1300.76428
  1222.0     0.000818    1298.12891   1301.19482
  1275.0     0.000784    1298.38892   1301.64050
  1194.0     0.000838    1298.64819   1302.10339
  1137.0     0.000880    1298.90674   1302.58630
  1221.0     0.000819    1299.16467   1303.09253
  1247.0     0.000802    1299.42163   1303.62585
  1194.0     0.000838    1299.67798   1304.19263
  1192.0     0.000839    1299.93359   1304.80139
  1304.0     0.000767    1300.18848   1305.46521
  1269.0     0.000788    1300.44250   1306.20410
  1256.0     0.000796    1300.69580   1307.04932
  1284.0     0.000779    1300.94836   1308.04651
  1275.0     0.000784    1301.20020   1309.26050
  1275.0     0.000784    1301.45117   1310.77747
  1373.0     0.000728    1301.70142   1312.70654
  1276.0     0.000784    1301.95093   1315.17578
  1253.0     0.000798    1302.19971   1318.32410
  1282.0     0.000780    1302.44751   1322.28772
  1315.0     0.000760    1302.69470   1327.18518
  1310.0     0.000763    1302.94104   1333.10632
  1319.0     0.000758    1303.18665   1340.11707
  1335.0     0.000749    1303.43140   1348.26160
  1322.0     0.000756    1303.67542   1357.56982
  1314.0     0.000761    1303.91858   1368.09216
  1400.0     0.000714    1304.16101   1379.91711
  1390.0     0.000719    1304.40259   1393.17810
  1354.0     0.000739    1304.64331   1408.09766
  1327.0     0.000754    1304.88330   1424.99609
  1355.0     0.000738    1305.12256   1449.24377
  1408.0     0.000710    1305.36096   1471.65564
  1446.0     0.000692    1305.59851   1497.76013
  1534.0     0.000652    1305.83521   1528.26233
  1628.0     0.000614    1306.07117   1563.67737
  1693.0     0.000591    1306.30627   1604.00061
  1799.0     0.000556    1306.54053   1648.30127
  1768.0     0.000566    1306.77405   1694.31531
  1890.0     0.000529    1307.00671   1738.22632
  1947.0     0.000514    1307.23865   1774.76770
  2010.0     0.000498    1307.46960   1797.77161
  2012.0     0.000497    1307.69983   1801.28589
  1930.0     0.000518    1307.92920   1781.47192
  1834.0     0.000545    1308.15771   1738.98340
  1828.0     0.000547    1308.38538   1679.89014
  1778.0     0.000562    1308.61230   1613.36621
  1685.0     0.000593    1308.83838   1548.04590
  1532.0     0.000653    1309.06360   1489.97729
  1504.0     0.000665    1309.28796   1442.33813
  1417.0     0.000706    1309.51147   1405.89819
  1367.0     0.000732    1309.73425   1379.72046
  1389.0     0.000720    1309.95618   1361.92175
  1339.0     0.000747    1310.17712   1350.34741
  1310.0     0.000763    1310.39734   1343.04028
  1272.0     0.000786    1310.61670   1338.46985
  1307.0     0.000765    1310.83521   1335.56909
  1301.0     0.000769    1311.05286   1333.66113
  1282.0     0.000780    1311.26978   1332.34729
  1233.0     0.000811    1311.48572   1331.40466
  1319.0     0.000758    1311.70093   1330.71143
  1293.0     0.000773    1311.91528   1330.19995
  1411.0     0.000709    1312.12866   1329.82996
  1332.0     0.000751    1312.34131   1329.57544
  1258.0     0.000795    1312.55310   1329.41809
  1257.0     0.000796    1312.76404   1329.34387
  1231.0     0.000812    1312.97412   1329.34192
  1344.0     0.000744    1313.18335   1329.40369
  1253.0     0.000798    1313.39172   1329.52222
  1376.0     0.000727    1313.59937   1329.69165
  1276.0     0.000784    1313.80603   1329.90747
  1246.0     0.000803    1314.01184   1330.16602
  1294.0     0.000773    1314.21692   1330.46460
  1329.0     0.000752    1314.42102   1330.80066
  1360.0     0.000735    1314.62439   1331.17236
  1310.0     0.000763    1314.82690   1331.57874
  1341.0     0.000746    1315.02856   1332.01843
  1331.0     0.000751    1315.22937   1332.49133
  1275.0     0.000784    1315.42920   1332.99670
  1294.0     0.000773    1315.62830   1333.53479
  1263.0     0.000792    1315.82654   1334.10583
  1310.0     0.000763    1316.02405   1334.71069
  1263.0     0.000792    1316.22058   1335.34973
  1301.0     0.000769    1316.41626   1336.02429
  1391.0     0.000719    1316.61121   1336.73584
  1358.0     0.000736    1316.80518   1337.48572
  1350.0     0.000741    1316.99841   1338.27600
  1326.0     0.000754    1317.19080   1339.10889
  1289.0     0.000776    1317.38232   1339.98669
  1369.0     0.000730    1317.57288   1340.91199
  1314.0     0.000761    1317.76282   1341.88855
  1280.0     0.000781    1317.95178   1342.91943
  1322.0     0.000756    1318.13989   1344.00879
  1291.0     0.000775    1318.32727   1345.16125
  1293.0     0.000773    1318.51379   1346.38159
  1331.0     0.000751    1318.69934   1347.67554
  1321.0     0.000757    1318.88416   1349.04980
  1325.0     0.000755    1319.06812   1350.51099
  1300.0     0.000769    1319.25134   1352.06750
  1366.0     0.000732    1319.43359   1353.72839
  1296.0     0.000772    1319.61511   1355.50378
  1341.0     0.000746    1319.79578   1357.40576
  1308.0     0.000765    1319.97571   1359.44727
  1376.0     0.000727    1320.15466   1361.64355
  1311.0     0.000763    1320.33289   1364.01233
  1336.0     0.000749    1320.51025   1366.57336
  1312.0     0.000762    1320.68677   1369.35022
  1332.0     0.000751    1320.86243   1372.37000
  1362.0     0.000734    1321.03735   1375.66455
  1345.0     0.000743    1321.21143   1379.27161
  1323.0     0.000756    1321.38464   1383.23706
  1397.0     0.000716    1321.55713   1387.61877
  1399.0     0.000715    1321.72876   1392.49121
  1347.0     0.000742    1321.89954   1397.95923
  1434.0     0.000697    1322.06958   1404.17566
  1488.0     0.000672    1322.23877   1411.37231
  1509.0     0.000663    1322.40710   1419.90857
  1617.0     0.000618    1322.57471   1430.33203
  1601.0     0.000625    1322.74146   1443.45300
  1652.0     0.000605    1322.90747   1460.45056
  1637.0     0.000611    1323.07263   1482.79993
  1707.0     0.000586    1323.23706   1512.47754
  1712.0     0.000584    1323.40063   1551.78589
  1849.0     0.000541    1323.56335   1603.25684
  1924.0     0.000520    1323.72534   1669.43115
  2077.0     0.000481    1323.88660   1752.58386
  2134.0     0.000469    1324.04700   1854.55762
  2270.0     0.000441    1324.20667   1976.83374
  2448.0     0.000408    1324.36548   2120.61646
  2536.0     0.000394    1324.52344   2286.95752
  2766.0     0.000362    1324.68079   2477.41528
  2975.0     0.0003361   1324.83716   2694.53101
  3176.0     0.0003149   1324.99292   2941.54785
  3595.0     0.0002782   1325.14783   3225.07764
  4095.0     0.0002442   1325.30200   3552.50171
  4580.0     0.0002183   1325.45544   3933.62402
  4950.0     0.0002020   1325.60803   4379.68945
  5603.0     0.0001785   1325.75989   4900.74561
  6044.0     0.0001655   1325.91101   5501.69580
  6668.0     0.0001500   1326.06128   6176.42383
  7263.0     0.0001377   1326.21082   6901.08105
  7560.0     0.0001323   1326.35962   7628.98926
  8302.0     0.0001205   1326.50769   8289.17578
  8431.0     0.0001186   1326.65491   8791.05566
  8205.0     0.0001219   1326.80151   9036.54590
  8666.0     0.0001154   1326.94727   8942.39355
  7858.0     0.0001273   1327.09229   8474.58203
  7426.0     0.0001347   1327.23657   7680.27588
  6540.0     0.0001529   1327.38013   6681.29004
  5896.0     0.0001696   1327.52295   5623.22559
  4951.0     0.0002020   1327.66504   4626.34033
  4269.0     0.0002342   1327.80640   3766.88745
  3468.0     0.0002884   1327.94702   3078.83691
  2870.0     0.0003484   1328.08691   2562.80713
  2667.0     0.000375    1328.22607   2197.43042
  2296.0     0.000436    1328.36450   1950.82446
  2069.0     0.000483    1328.50220   1789.95300
  1779.0     0.000562    1328.63916   1686.49609
  1766.0     0.000566    1328.77551   1619.20691
  1584.0     0.000631    1328.91101   1573.74170
  1559.0     0.000641    1329.04590   1541.21509
  1524.0     0.000656    1329.18005   1516.48059
  1496.0     0.000668    1329.31348   1496.68237
  1488.0     0.000672    1329.44629   1480.25232
  1424.0     0.000702    1329.57825   1466.29919
  1482.0     0.000675    1329.70959   1454.27832
  1433.0     0.000698    1329.84021   1443.82324
  1467.0     0.000682    1329.97021   1434.66711
  1375.0     0.000727    1330.09949   1426.60266
  1398.0     0.000715    1330.22803   1419.46545
  1408.0     0.000710    1330.35596   1413.12085
  1363.0     0.000734    1330.48315   1407.45801
  1367.0     0.000732    1330.60962   1402.38452
  1347.0     0.000742    1330.73547   1397.82397
  1334.0     0.000750    1330.86072   1393.71094
  1405.0     0.000712    1330.98523   1389.99084
  1390.0     0.000719    1331.10913   1386.61658
  1341.0     0.000746    1331.23230   1383.54846
  1286.0     0.000778    1331.35486   1380.75220
  1312.0     0.000762    1331.47668   1378.19824
  1315.0     0.000760    1331.59790   1375.86108
  1286.0     0.000778    1331.71851   1373.71924
  1264.0     0.000791    1331.83838   1371.75281
  1339.0     0.000747    1331.95764   1369.94580
  1323.0     0.000756    1332.07629   1368.28296
  1372.0     0.000729    1332.19434   1366.75085
  1449.0     0.000690    1332.31165   1365.33691
  1399.0     0.000715    1332.42847   1364.02844
  1364.0     0.000733    1332.54456   1362.81409
  1343.0     0.000745    1332.65991   1361.68152
  1414.0     0.000707    1332.77478   1360.61975
  1321.0     0.000757    1332.88904   1359.61926
  1424.0     0.000702    1333.00269   1358.67273
  1362.0     0.000734    1333.11560   1357.77649
  1317.0     0.000759    1333.22803   1356.93091
  1411.0     0.000709    1333.33984   1356.13745
  1415.0     0.000707    1333.45093   1356.94275
  1371.0     0.000729    1333.56152   1356.28967
  1331.0     0.000751    1333.67151   1355.68848
  1322.0     0.000756    1333.78088   1356.59863
  1328.0     0.000753    1333.88965   1356.12622
  1433.0     0.000698    1333.99792   1355.69800
  1344.0     0.000744    1334.10547   1355.31091
  1368.0     0.000731    1334.21252   1354.96277
  1310.0     0.000763    1334.31897   1354.65271
  1421.0     0.000704    1334.42480   1354.38049
  1251.0     0.000799    1334.53015   1354.14783
  1252.0     0.000799    1334.63489   1353.95789
  1322.0     0.000756    1334.73901   1353.81641
  1297.0     0.000771    1334.84265   1353.73267
  1295.0     0.000772    1334.94568   1353.71826
  1319.0     0.000758    1335.04810   1353.78772
  1323.0     0.000756    1335.15002   1353.95862
  1295.0     0.000772    1335.25146   1354.24915
  1411.0     0.000709    1335.35229   1354.67700
  1339.0     0.000747    1335.45251   1355.25769
  1304.0     0.000767    1335.55237   1356.00427
  1369.0     0.000730    1335.65149   1356.92847
  1323.0     0.000756    1335.75024   1358.04175
  1356.0     0.000737    1335.84839   1359.35693
  1275.0     0.000784    1335.94604   1360.89624
  1367.0     0.000732    1336.04309   1362.69092
  1299.0     0.000770    1336.13965   1364.78516
  1331.0     0.000751    1336.23572   1367.23950
  1319.0     0.000758    1336.33130   1370.12378
  1301.0     0.000769    1336.42627   1373.50610
  1297.0     0.000771    1336.52087   1377.43103
  1346.0     0.000743    1336.61487   1381.88184
  1315.0     0.000760    1336.70837   1386.73938
  1316.0     0.000760    1336.80139   1391.74487
  1370.0     0.000730    1336.89392   1396.48181
  1289.0     0.000776    1336.98596   1400.39417
  1326.0     0.000754    1337.07751   1402.84924
  1345.0     0.000743    1337.16858   1403.25854
  1443.0     0.000693    1337.25928   1401.27673
  1378.0     0.000726    1337.34937   1389.88159
  1320.0     0.000758    1337.43896   1384.18542
  1429.0     0.000700    1337.52820   1377.81335
  1315.0     0.000760    1337.61682   1371.62170
  1369.0     0.000730    1337.70508   1366.20520
  1372.0     0.000729    1337.79285   1361.87646
  1361.0     0.000735    1337.88025   1358.71216
  1328.0     0.000753    1337.96704   1356.62024
  1370.0     0.000730    1338.05347   1355.41650
  1323.0     0.000756    1338.13940   1354.88892
  1368.0     0.000731    1338.22498   1354.84521
  1382.0     0.000724    1338.31006   1355.13513
  1379.0     0.000725    1338.39478   1355.65552
  1395.0     0.000717    1338.47900   1356.34253
  1414.0     0.000707    1338.56274   1357.16223
  1382.0     0.000724    1338.64612   1358.09985
  1384.0     0.000723    1338.72900   1359.15210
  1402.0     0.000713    1338.81152   1360.32349
  1316.0     0.000760    1338.89368   1361.62317
  1392.0     0.000718    1338.97534   1363.06445
  1412.0     0.000708    1339.05664   1364.66504
  1348.0     0.000742    1339.13745   1366.44873
  1333.0     0.000750    1339.21790   1368.44727
  1398.0     0.000715    1339.29797   1370.70581
  1387.0     0.000721    1339.37769   1373.29053
  1384.0     0.000723    1339.45691   1376.30127
  1445.0     0.000692    1339.53577   1379.89038
  1479.0     0.000676    1339.61438   1384.28467
  1470.0     0.000680    1339.69238   1389.81458
  1439.0     0.000695    1339.77014   1396.94177
  1568.0     0.000638    1339.84753   1406.28296
  1501.0     0.000666    1339.92444   1418.62146
  1547.0     0.000646    1340.00110   1434.89954
  1586.0     0.000631    1340.07727   1456.18323
  1603.0     0.000624    1340.15320   1483.60071
  1663.0     0.000601    1340.22876   1518.27747
  1806.0     0.000554    1340.30383   1561.30737
  1719.0     0.000582    1340.37866   1613.73682
  1799.0     0.000556    1340.45300   1676.55725
  1884.0     0.000531    1340.52722   1750.85559
  1920.0     0.000521    1340.60095   1838.01550
  2055.0     0.000487    1340.67432   1939.79431
  2175.0     0.000460    1340.74744   2058.54419
  2284.0     0.000438    1340.82019   2197.30054
  2319.0     0.000431    1340.89258   2359.42383
  2445.0     0.000409    1340.96460   2548.07129
  2701.0     0.000370    1341.03638   2765.04199
  2931.0     0.0003412   1341.10779   3009.10522
  3129.0     0.0003196   1341.17883   3274.24268
  3484.0     0.0002870   1341.24963   3547.95679
  3767.0     0.0002655   1341.32007   3810.44629
  3839.0     0.0002605   1341.39026   4035.19775
  4115.0     0.0002430   1341.46008   4191.79297
  4059.0     0.0002464   1341.52966   4252.05029
  4085.0     0.0002448   1341.59888   4198.85889
  3894.0     0.0002568   1341.66785   4032.42554
  3681.0     0.0002717   1341.73657   3769.05591
  3489.0     0.0002866   1341.80481   3436.95337
  3148.0     0.0003177   1341.87292   3072.69263
  2761.0     0.000362    1341.94067   2714.00806
  2528.0     0.000396    1342.00818   2390.49365
  2222.0     0.000450    1342.07544   2119.11084
  2123.0     0.000471    1342.14233   1905.16016
  1950.0     0.000513    1342.20898   1745.48340
  1827.0     0.000547    1342.27539   1631.91333
  1740.0     0.000575    1342.34155   1554.28320
  1697.0     0.000589    1342.40747   1502.66418
  1608.0     0.000622    1342.47302   1468.69568
  1667.0     0.000600    1342.53845   1446.08289
  1621.0     0.000617    1342.60352   1430.50232
  1478.0     0.000677    1342.66833   1419.20605
  1465.0     0.000683    1342.73291   1410.55188
  1508.0     0.000663    1342.79724   1403.59839
  1459.0     0.000685    1342.86133   1397.81348
  1426.0     0.000701    1342.92517   1392.88916
  1402.0     0.000713    1342.98877   1388.63574
  1431.0     0.000699    1343.05225   1384.92627
  1457.0     0.000686    1343.11536   1381.66858
  1382.0     0.000724    1343.17834   1378.79211
  1403.0     0.000713    1343.24097   1376.23987
  1433.0     0.000698    1343.30347   1373.96570
  1402.0     0.000713    1343.36572   1371.93176
  1488.0     0.000672    1343.42773   1370.10583
  1401.0     0.000714    1343.48950   1368.46130
  1422.0     0.000703    1343.55115   1366.97571
  1336.0     0.000749    1343.61255   1365.62988
  1374.0     0.000728    1343.67371   1364.40710
  1418.0     0.000705    1343.73462   1363.29370
  1435.0     0.000697    1343.79541   1362.23059
  1420.0     0.000704    1343.85596   1361.30188
  1398.0     0.000715    1343.91638   1360.45081
  1361.0     0.000735    1343.97656   1359.66919
  1460.0     0.000685    1344.03662   1358.95032
  1402.0     0.000713    1344.09631   1358.28784
  1379.0     0.000725    1344.15601   1357.67664
  1317.0     0.000759    1344.21545   1357.11169
  1402.0     0.000713    1344.27466   1356.58887
  1327.0     0.000754    1344.33374   1356.10449
  1386.0     0.000722    1344.39270   1355.65540
  1389.0     0.000720    1344.45142   1355.23828
  1426.0     0.000701    1344.50989   1354.85046
  1413.0     0.000708    1344.56836   1354.48987
  1411.0     0.000709    1344.62659   1354.15405
  1384.0     0.000723    1344.68469   1353.84119
  1347.0     0.000742    1344.74255   1353.54932
  1390.0     0.000719    1344.80029   1353.27710
  1405.0     0.000712    1344.85791   1353.02295
  1375.0     0.000727    1344.91528   1352.78540
  1390.0     0.000719    1344.97266   1352.56360
  1377.0     0.000726    1345.02979   1352.35632
  1389.0     0.000720    1345.08679   1352.16235
  1453.0     0.000688    1345.14368   1351.98096
  1426.0     0.000701    1345.20032   1351.81128
  1373.0     0.000728    1345.25684   1351.65247
  1426.0     0.000701    1345.31335   1351.50415
  1311.0     0.000763    1345.36963   1351.36511
  1372.0     0.000729    1345.42578   1351.23511
  1312.0     0.000762    1345.48193   1351.11377
  1389.0     0.000720    1345.53784   1351.00012
  1421.0     0.000704    1345.59363   1350.89392
  1419.0     0.000705    1345.64929   1350.79468
  1328.0     0.000753    1345.70483   1350.70203
  1302.0     0.000768    1345.76025   1350.61560
  1346.0     0.000743    1345.81555   1350.53503
  1308.0     0.000765    1345.87085   1350.46008
  1375.0     0.000727    1345.92590   1350.39014
  1349.0     0.000741    1345.98096   1350.32532
  1369.0     0.000730    1346.03577   1350.26489
  1380.0     0.000725    1346.09058   1350.20911
  1341.0     0.000746    1346.14526   1350.15759
  1410.0     0.000709    1346.19983   1350.10986
  1398.0     0.000715    1346.25427   1350.06580
  1495.0     0.000669    1346.30872   1350.02563
  1363.0     0.000734    1346.36304   1349.98865
  1403.0     0.000713    1346.41724   1349.95508
  1394.0     0.000717    1346.47131   1349.92432
  1413.0     0.000708    1346.52539   1349.89661
  1388.0     0.000720    1346.57935   1349.87183
  1421.0     0.000704    1346.63318   1349.84949
  1360.0     0.000735    1346.68701   1349.82983
  1420.0     0.000704    1346.74072   1349.81250
  1355.0     0.000738    1346.79431   1349.79749
  1383.0     0.000723    1346.84790   1348.32556
  1336.0     0.000749    1346.90137   1348.34619
  1417.0     0.000706    1346.95471   1348.36780
  1404.0     0.000712    1347.00806   1347.00806
  1374.0     0.000728    1347.06128   1347.06128
  1352.0     0.000740    1347.11450   1347.11450
  1439.0     0.000695    1347.16760   1347.16760
  1374.0     0.000728    1347.22070   1347.22070
  1416.0     0.000706    1347.27380   1347.27380
  1378.0     0.000726    1347.32666   1347.32666
  1468.0     0.000681    1347.37964   1347.37964
  1314.0     0.000761    1347.43250   1347.43250
  1350.0     0.000741    1347.48523   1347.48523
  1439.0     0.000695    1347.53796   1347.53796
  1402.0     0.000713    1347.59070   1347.59070
  1433.0     0.000698    1347.64331   1347.64331
  1369.0     0.000730    1347.69592   1347.69592
  1388.0     0.000720    1347.74841   1347.74841
  1431.0     0.000699    1347.80103   1347.80103
  1386.0     0.000722    1347.85339   1347.85339
  1444.0     0.000693    1347.90588   1347.90588
  1391.0     0.000719    1347.95825   1347.95825
  1429.0     0.000700    1348.01062   1348.01062
  1363.0     0.000734    1348.06287   1348.06287
  1382.0     0.000724    1348.11523   1348.11523
  1413.0     0.000708    1348.16748   1348.16748
  1386.0     0.000722    1348.21960   1348.21960
  1363.0     0.000734    1348.27185   1348.27185
  1357.0     0.000737    1348.32397   1348.32397
  1331.0     0.000751    1348.37610   1348.37610
  1307.0     0.000765    1348.42822   1348.42822
  1365.0     0.000733    1348.48035   1348.48035
  1315.0     0.000760    1348.53235   1348.53235
  1359.0     0.000736    1348.58435   1349.04541
  1437.0     0.000696    1348.63647   1349.10803
  1422.0     0.000703    1348.68835   1349.17090
  1346.0     0.000743    1348.74036   1349.23413
  1347.0     0.000742    1348.79236   1349.29785
  1373.0     0.000728    1348.84436   1349.36194
  1362.0     0.000734    1348.89624   1349.42639
  1435.0     0.000697    1348.94824   1349.49146
  1333.0     0.000750    1349.00012   1349.55688
  1365.0     0.000733    1349.05200   1349.62280
  1335.0     0.000749    1349.10388   1349.68921
  1379.0     0.000725    1349.15576   1349.75623
  1395.0     0.000717    1349.20764   1349.82385
  1357.0     0.000737    1349.25952   1349.89209
  1363.0     0.000734    1349.31140   1349.96094
  1418.0     0.000705    1349.36328   1350.03064
  1340.0     0.000746    1349.41516   1350.10095
  1390.0     0.000719    1349.46704   1350.17200
  1423.0     0.000703    1349.51892   1350.24390
  1396.0     0.000716    1349.57080   1350.31677
  1404.0     0.000712    1349.62268   1350.39050
  1369.0     0.000730    1349.67456   1350.46521
  1325.0     0.000755    1349.72644   1350.54089
  1389.0     0.000720    1349.77832   1350.61768
  1452.0     0.000689    1349.83020   1366.56494
  1402.0     0.000713    1349.88208   1367.00610
  1384.0     0.000723    1349.93396   1385.58325
  1422.0     0.000703    1349.98584   1386.46606
  1362.0     0.000734    1350.03784   1387.37842
  1429.0     0.000700    1350.08972   1388.32178
  1341.0     0.000746    1350.14172   1389.29773
  1369.0     0.000730    1350.19360   1390.30762
  1412.0     0.000708    1350.24561   1391.35352
  1432.0     0.000698    1350.29761   1392.43701
  1414.0     0.000707    1350.34961   1393.56018
  1422.0     0.000703    1350.40161   1394.72510
  1390.0     0.000719    1350.45361   1395.93372
  1413.0     0.000708    1350.50574   1397.18860
  1358.0     0.000736    1350.55774   1398.49255
  1406.0     0.000711    1350.60986   1399.84790
  1410.0     0.000709    1350.66199   1401.25769
  1414.0     0.000707    1350.71411   1402.72498
  1412.0     0.000708    1350.76624   1404.25305
  1385.0     0.000722    1350.81836   1405.84558
  1422.0     0.000703    1350.87048   1407.50647
  1442.0     0.000693    1350.92273   1409.24011
  1370.0     0.000730    1350.97498   1411.05054
  1400.0     0.000714    1351.02722   1412.94287
  1497.0     0.000668    1351.07947   1414.92261
  1404.0     0.000712    1351.13184   1416.99512
  1375.0     0.000727    1351.18408   1419.16650
  1354.0     0.000739    1351.23645   1421.44409
  1359.0     0.000736    1351.28882   1423.84180
  1426.0     0.000701    1351.34119   1426.35413
  1444.0     0.000693    1351.39355   1428.99658
  1417.0     0.000706    1351.44604   1431.77905
  1398.0     0.000715    1351.49854   1434.71216
  1562.0     0.000640    1351.55103   1437.80762
  1467.0     0.000682    1351.60352   1441.09106
  1492.0     0.000670    1351.65613   1444.55249
  1478.0     0.000677    1351.70862   1448.22058
  1414.0     0.000707    1351.76123   1452.11426
  1414.0     0.000707    1351.81384   1456.25525
  1415.0     0.000707    1351.86658   1460.67004
  1476.0     0.000678    1351.91919   1465.39172
  1480.0     0.000676    1351.97192   1470.46313
  1458.0     0.000686    1352.02466   1475.94153
  1448.0     0.000691    1352.07739   1481.90491
  1501.0     0.000666    1352.13025   1488.45911
  1419.0     0.000705    1352.18311   1495.74463
  1378.0     0.000726    1352.23596   1503.94360
  1381.0     0.000724    1352.28882   1513.28137
  1418.0     0.000705    1352.34167   1524.02588
  1460.0     0.000685    1352.39465   1536.48035
  1565.0     0.000639    1352.44763   1550.96912
  1592.0     0.000628    1352.50061   1567.82397
  1469.0     0.000681    1352.55371   1587.37866
  1556.0     0.000643    1352.60669   1609.98608
  1541.0     0.000649    1352.65979   1636.04102
  1672.0     0.000598    1352.71289   1666.01184
  1553.0     0.000644    1352.76611   1700.48975
  1482.0     0.000675    1352.81934   1740.19409
  1631.0     0.000613    1352.87244   1785.90540
  1620.0     0.000617    1352.92578   1838.33691
  1715.0     0.000583    1352.97900   1897.86169
  1861.0     0.000537    1353.03223   1964.17383
  1872.0     0.000534    1353.08557   2035.94238
  1960.0     0.000510    1353.13892   2110.57495
  2002.0     0.000500    1353.19226   2184.50220
  2055.0     0.000487    1353.24573   2253.02563
  2106.0     0.000475    1353.29919   2311.39868
  2199.0     0.000455    1353.35266   2357.38672
  2371.0     0.000422    1353.40613   2392.64844
  2451.0     0.000408    1353.45959   2425.23779
  2567.0     0.000390    1353.51318   2469.61694
  2639.0     0.000379    1353.56677   2544.21606
  2717.0     0.000368    1353.62024   2668.93555
  2992.0     0.0003342   1353.67395   2864.03101
  3334.0     0.0002999   1353.72754   3149.76660
  3596.0     0.0002781   1353.78113   3546.13208
  4035.0     0.0002478   1353.83484   4072.61523
  4703.0     0.0002126   1353.88855   4748.52100
  5439.0     0.0001839   1353.94226   5593.93896
  6194.0     0.0001614   1353.99609   6630.94238
  7262.0     0.0001377   1354.04980   7885.76221
  8716.0     0.0001147   1354.10364   9390.97461
  10011.0    0.0000999   1354.15747   11184.51660
  12550.0    0.0000797   1354.21130   13306.25293
  14638.0    0.0000683   1354.26514   15788.94922
  17779.0    0.0000562   1354.31909   18639.91016
  21156.0    0.0000473   1354.37292   21819.77734
  25575.0    0.0000391   1354.42688   25218.80078
  29933.0    0.0000334   1354.48071   28637.42969
  34536.0    0.0000290   1354.53467   31783.59961
  38140.0    0.0000262   1354.58862   34289.97656
  40557.0    0.0000247   1354.64270   35763.74609
  40339.0    0.0000248   1354.69666   35875.30469
  39501.0    0.0000253   1354.75061   34471.13672
  35774.0    0.0000280   1354.80469   31653.38086
  29906.0    0.0000334   1354.85864   27773.56250
  23876.0    0.0000419   1354.91272   23341.29297
  18765.0    0.0000533   1354.96680   18877.36914
  13919.0    0.0000718   1355.02087   14789.45117
  10524.0    0.0000950   1355.07495   11321.28809
  7838.0     0.0001276   1355.12903   8564.70801
  5928.0     0.0001687   1355.18311   6497.35693
  4407.0     0.0002269   1355.23718   5022.56299
  3518.0     0.0002843   1355.29126   4014.43164
  2720.0     0.000368    1355.34546   3345.84448
  2426.0     0.000412    1355.39954   2908.31226
  2095.0     0.000477    1355.45361   2620.33545
  1955.0     0.000512    1355.50781   2423.59839
  1971.0     0.000507    1355.56189   2282.69336
  1838.0     0.000544    1355.61597   2175.97583
  1712.0     0.000584    1355.67017   2091.05835
  1773.0     0.000564    1355.72424   2020.97498
  1686.0     0.000593    1355.77832   1961.73877
  1667.0     0.000600    1355.83252   1910.93066
  1658.0     0.000603    1355.88660   1866.94983
  1679.0     0.000596    1355.94067   1828.63416
  1567.0     0.000638    1355.99475   1795.07361
  1612.0     0.000620    1356.04883   1765.51245
  1525.0     0.000656    1356.10303   1739.30237
  1518.0     0.000659    1356.15698   1715.87244
  1606.0     0.000623    1356.21106   1694.72705
  1547.0     0.000646    1356.26514   1675.45093
  1531.0     0.000653    1356.31921   1657.71826
  1449.0     0.000690    1356.37317   1641.27002
  1529.0     0.000654    1356.42725   1625.88086
  1563.0     0.000640    1356.48120   1611.35388
  1529.0     0.000654    1356.53516   1597.55981
  1540.0     0.000649    1356.58911   1584.48267
  1492.0     0.000670    1356.64307   1572.21216
  1464.0     0.000683    1356.69690   1560.87793
  1508.0     0.000663    1356.75085   1550.58667
  1472.0     0.000679    1356.80469   1541.40125
  1471.0     0.000680    1356.85852   1533.35205
  1524.0     0.000656    1356.91235   1526.45764
  1452.0     0.000689    1356.96606   1520.74915
  1486.0     0.000673    1357.01990   1516.29309
  1475.0     0.000678    1357.07361   1513.20923
  1426.0     0.000701    1357.12732   1511.68188
  1474.0     0.000678    1357.18091   1511.95752
  1481.0     0.000675    1357.23450   1514.33313
  1567.0     0.000638    1357.28809   1519.13806
  1519.0     0.000658    1357.34167   1526.71704
  1521.0     0.000657    1357.39514   1537.43933
  1623.0     0.000616    1357.44861   1551.72327
  1615.0     0.000619    1357.50208   1570.05518
  1573.0     0.000636    1357.55542   1593.01318
  1566.0     0.000639    1357.60876   1621.27637
  1616.0     0.000619    1357.66211   1655.51624
  1727.0     0.000579    1357.71533   1696.17700
  1756.0     0.000569    1357.76855   1743.15820
  1787.0     0.000560    1357.82166   1795.37634
  1881.0     0.000532    1357.87476   1850.36145
  1860.0     0.000538    1357.92773   1904.03040
  1870.0     0.000535    1357.98071   1950.75269
  1881.0     0.000532    1358.03369   1983.86255
  1935.0     0.000517    1358.08655   1996.69531
  1883.0     0.000531    1358.13940   1984.33496
  1828.0     0.000547    1358.19214   1945.48120
  1833.0     0.000546    1358.24475   1885.63599
  1735.0     0.000576    1358.29736   1813.19031
  1672.0     0.000598    1358.34998   1737.81335
  1634.0     0.000612    1358.40234   1667.28357
  1572.0     0.000636    1358.45483   1606.53992
  1632.0     0.000613    1358.50708   1557.82275
  1577.0     0.000634    1358.55945   1521.23706
  1590.0     0.000629    1358.61157   1495.47083
  1543.0     0.000648    1358.66370   1478.52808
  1540.0     0.000649    1358.71570   1468.34058
  1530.0     0.000654    1358.76770   1463.16650
  1546.0     0.000647    1358.81946   1461.77563
  1571.0     0.000637    1358.87134   1463.47058
  1530.0     0.000654    1358.92297   1468.01416
  1554.0     0.000644    1358.97461   1475.53516
  1541.0     0.000649    1359.02612   1486.44006
  1594.0     0.000627    1359.07751   1501.36682
  1591.0     0.000629    1359.12878   1521.16931
  1651.0     0.000606    1359.18005   1546.89758
  1767.0     0.000566    1359.23120   1579.78589
  1711.0     0.000584    1359.28223   1621.22546
  1782.0     0.000561    1359.33325   1672.67358
  1853.0     0.000540    1359.38403   1735.53003
  1916.0     0.000522    1359.43481   1795.84448
  2026.0     0.000494    1359.48535   1884.71851
  2198.0     0.000455    1359.53589   1969.30237
  2179.0     0.000459    1359.58630   2083.35815
  2297.0     0.000435    1359.63660   2206.92993
  2368.0     0.000422    1359.68677   2336.48560
  2352.0     0.000425    1359.73682   2467.36963
  2365.0     0.000423    1359.78674   2594.36255
  2469.0     0.000405    1359.83655   2712.50732
  2664.0     0.000375    1359.88635   2817.26392
  2766.0     0.000362    1359.93591   2903.32666
  2675.0     0.000374    1359.98535   2964.87378
  2757.0     0.000363    1360.03467   2990.64893
  2681.0     0.000373    1360.08386   2975.99170
  2624.0     0.000381    1360.13293   2919.92578
  2462.0     0.000406    1360.18188   2825.92041
  2394.0     0.000418    1360.23071   2698.90039
  2332.0     0.000429    1360.27930   2544.65308
  2153.0     0.000464    1360.32788   2372.10132
  1981.0     0.000505    1360.37622   2194.12012
  1964.0     0.000509    1360.42444   2024.39307
  1746.0     0.000573    1360.47253   1873.42017
  1708.0     0.000585    1360.52051   1746.96313
  1553.0     0.000644    1360.56824   1646.54309
  1594.0     0.000627    1360.61584   1570.58582
  1574.0     0.000635    1360.66333   1515.59949
  1457.0     0.000686    1360.71069   1477.24609
  1566.0     0.000639    1360.75781   1451.19983
  1540.0     0.000649    1360.80481   1433.71436
  1469.0     0.000681    1360.85168   1421.87354
  1495.0     0.000669    1360.89832   1413.62659
  1444.0     0.000693    1360.94482   1407.61292
  1460.0     0.000685    1360.99109   1402.99817
  1440.0     0.000694    1361.03723   1399.29175
  1501.0     0.000666    1361.08325   1396.19946
  1440.0     0.000694    1361.12903   1393.57947
  1363.0     0.000734    1361.17468   1391.31897
  1365.0     0.000733    1361.22009   1389.35120
  1409.0     0.000710    1361.26538   1387.62830
  1425.0     0.000702    1361.31042   1386.11401
  1434.0     0.000697    1361.35535   1384.77905
  1401.0     0.000714    1361.40002   1383.59949
  1328.0     0.000753    1361.44458   1382.55664
  1358.0     0.000736    1361.48889   1381.63342
  1367.0     0.000732    1361.53296   1380.81628
  1362.0     0.000734    1361.57678   1380.09375
  1360.0     0.000735    1361.62061   1379.45630
  1404.0     0.000712    1361.66406   1378.89563
  1376.0     0.000727    1361.70740   1378.40491
  1421.0     0.000704    1361.75037   1377.97778
  1365.0     0.000733    1361.79333   1377.61023
  1332.0     0.000751    1361.83594   1377.56592
  1413.0     0.000708    1361.87842   1377.31030
  1366.0     0.000732    1361.92065   1377.10376
  1384.0     0.000723    1361.96265   1376.94421
  1428.0     0.000700    1362.00439   1376.82910
  1313.0     0.000762    1362.04602   1376.75806
  1350.0     0.000741    1362.08728   1376.72949
  1389.0     0.000720    1362.12842   1376.74377
  1409.0     0.000710    1362.16931   1376.80090
  1413.0     0.000708    1362.20984   1376.90100
  1372.0     0.000729    1362.25024   1377.04517
  1318.0     0.000759    1362.29041   1377.23535
  1407.0     0.000711    1362.33032   1377.47314
  1374.0     0.000728    1362.37000   1377.54211
  1329.0     0.000752    1362.40942   1377.59729
  1313.0     0.000762    1362.44861   1378.00745
  1304.0     0.000767    1362.48755   1378.47961
  1386.0     0.000722    1362.52625   1379.02002
  1417.0     0.000706    1362.56458   1379.63477
  1425.0     0.000702    1362.60266   1380.33289
  1443.0     0.000693    1362.64063   1381.12463
  1392.0     0.000718    1362.67822   1382.02234
  1376.0     0.000727    1362.71558   1383.04138
  1445.0     0.000692    1362.75269   1384.20239
  1386.0     0.000722    1362.78943   1385.53308
  1350.0     0.000741    1362.82605   1387.07410
  1452.0     0.000689    1362.86230   1388.88513
  1421.0     0.000704    1362.89819   1391.05981
  1448.0     0.000691    1362.93396   1393.74194
  1487.0     0.000672    1362.96936   1397.14868
  1494.0     0.000669    1363.00452   1401.59985
  1475.0     0.000678    1363.03931   1407.54565
  1427.0     0.000701    1363.07385   1415.59229
  1464.0     0.000683    1363.10815   1426.51819
  1502.0     0.000666    1363.14209   1441.27539
  1518.0     0.000659    1363.17566   1460.97766
  1569.0     0.000637    1363.20898   1486.86609
  1621.0     0.000617    1363.24207   1520.27246
  1737.0     0.000576    1363.27478   1562.61169
  1764.0     0.000567    1363.30725   1615.44946
  1790.0     0.000559    1363.33936   1680.56128
  1776.0     0.000563    1363.37109   1759.86218
  1944.0     0.000514    1363.40271   1855.29565
  1995.0     0.000501    1363.43384   1968.53552
  2082.0     0.000480    1363.46460   2100.14429
  2219.0     0.000451    1363.49512   2248.19629
  2378.0     0.000421    1363.52539   2408.47705
  2459.0     0.000407    1363.55518   2571.55566
  2535.0     0.000394    1363.58472   2723.83105
  2672.0     0.000374    1363.61389   2847.95703
  2678.0     0.000373    1363.64270   2924.84814
  2782.0     0.000359    1363.67126   2936.52783
  2613.0     0.000383    1363.69946   2874.93872
  2572.0     0.000389    1363.72729   2743.36426
  2336.0     0.000428    1363.75476   2560.77368
  2232.0     0.000448    1363.78186   2353.24268
  2116.0     0.000473    1363.80859   2147.49902
  1906.0     0.000525    1363.83496   1961.07654
  1822.0     0.000549    1363.86108   1804.42822
  1767.0     0.000566    1363.88672   1681.13843
  1561.0     0.000641    1363.91199   1589.62598
  1533.0     0.000652    1363.93701   1525.12683
  1533.0     0.000652    1363.96155   1481.57703
  1489.0     0.000672    1363.98584   1453.05334
  1430.0     0.000699    1364.00964   1434.61438
  1442.0     0.000693    1364.03308   1422.59314
  1446.0     0.000692    1364.05615   1414.51611
  1473.0     0.000679    1364.07886   1408.84436
  1445.0     0.000692    1364.10120   1404.68713
  1418.0     0.000705    1364.12305   1401.66821
  1398.0     0.000715    1364.14465   1399.34387
  1491.0     0.000671    1364.16577   1397.72693
  1434.0     0.000697    1364.18652   1396.82007
  1403.0     0.000713    1364.20679   1396.79248
  1444.0     0.000693    1364.22681   1397.56592
  1352.0     0.000740    1364.24634   1399.40430
  1423.0     0.000703    1364.26550   1402.50891
  1392.0     0.000718    1364.28418   1407.10986
  1385.0     0.000722    1364.30249   1413.45886
  1423.0     0.000703    1364.32043   1421.83740
  1487.0     0.000672    1364.33789   1432.56433
  1508.0     0.000663    1364.35486   1445.98828
  1476.0     0.000678    1364.37146   1462.45691
  1473.0     0.000679    1364.38770   1482.26624
  1439.0     0.000695    1364.40344   1505.52234
  1549.0     0.000646    1364.41882   1531.94360
  1525.0     0.000656    1364.43372   1560.66956
  1489.0     0.000672    1364.44824   1590.08130
  1511.0     0.000662    1364.46228   1617.74280
  1551.0     0.000645    1364.47583   1640.53625
  1522.0     0.000657    1364.48901   1654.99805
  1447.0     0.000691    1364.50171   1657.95813
  1530.0     0.000654    1364.51404   1647.54004
  1452.0     0.000689    1364.52576   1624.28247
  1537.0     0.000651    1364.53711   1591.44641
  1478.0     0.000677    1364.54797   1553.83582
  1456.0     0.000687    1364.55847   1516.07385
  1420.0     0.000704    1364.56836   1481.58606
  1408.0     0.000710    1364.57788   1452.38086
  1398.0     0.000715    1364.58691   1429.20874
  1390.0     0.000719    1364.59558   1411.85779
  1413.0     0.000708    1364.60364   1399.50781
  1341.0     0.000746    1364.61121   1391.07336
  1399.0     0.000715    1364.61829   1385.47278
  1352.0     0.000740    1364.62500   1381.78931
  1396.0     0.000716    1364.63123   1379.33398
  1368.0     0.000731    1364.63684   1377.63513
  1397.0     0.000716    1364.64209   1376.39526
  1434.0     0.000697    1364.64673   1375.43750
  1394.0     0.000717    1364.65100   1374.66162
  1325.0     0.000755    1364.65466   1374.01123
  1404.0     0.000712    1364.65784   1373.45471
  1393.0     0.000718    1364.66052   1372.97156
  1349.0     0.000741    1364.66272   1372.55005
  1362.0     0.000734    1364.66443   1372.18103
  1290.0     0.000775    1364.66565   1371.85767
  1346.0     0.000743    1364.66626   1371.57556
  1395.0     0.000717    1364.66638   1373.76624
  1363.0     0.000734    1364.66602   1373.61365
  1406.0     0.000711    1364.66516   1373.50024
  1390.0     0.000719    1364.66370   1373.42688
  1354.0     0.000739    1364.66187   1373.39771
  1354.0     0.000739    1364.65930   1373.41797
  1427.0     0.000701    1364.65637   1373.49512
  1409.0     0.000710    1364.65283   1375.65552
  1378.0     0.000726    1364.64868   1375.91992
  1353.0     0.000739    1364.64404   1376.27332
  1341.0     0.000746    1364.63892   1376.72815
  1401.0     0.000714    1364.63318   1377.29932
  1370.0     0.000730    1364.62695   1378.00232
  1349.0     0.000741    1364.62012   1378.85120
  1422.0     0.000703    1364.61279   1379.85693
  1397.0     0.000716    1364.60486   1381.01990
  1411.0     0.000709    1364.59644   1382.32458
  1365.0     0.000733    1364.58740   1383.72998
  1392.0     0.000718    1364.57776   1385.16724
  1421.0     0.000704    1364.56763   1386.54065
  1383.0     0.000723    1364.55688   1387.73657
  1371.0     0.000729    1364.54553   1388.63989
  1316.0     0.000760    1364.53369   1389.16943
  1354.0     0.000739    1364.52124   1389.31946
  1320.0     0.000758    1364.50818   1387.76587
  1363.0     0.000734    1364.49463   1387.61230
  1341.0     0.000746    1364.48035   1387.66028
  1364.0     0.000733    1364.46558   1388.17871
  1330.0     0.000752    1364.45020   1389.42126
  1343.0     0.000745    1364.43420   1391.61975
  1343.0     0.000745    1364.41772   1394.98718
  1397.0     0.000716    1364.40051   1399.72766
  1417.0     0.000706    1364.38269   1406.05017
  1382.0     0.000724    1364.36438   1414.17419
  1409.0     0.000710    1364.34546   1424.31726
  1402.0     0.000713    1364.32581   1436.67566
  1360.0     0.000735    1364.30566   1451.36682
  1455.0     0.000687    1364.28479   1468.34363
  1470.0     0.000680    1364.26343   1487.30334
  1485.0     0.000673    1364.24133   1507.59839
  1489.0     0.000672    1364.21875   1528.17444
  1467.0     0.000682    1364.19543   1547.56787
  1552.0     0.000644    1364.17151   1563.99817
  1470.0     0.000680    1364.14697   1575.60107
  1424.0     0.000702    1364.12183   1580.85413
  1521.0     0.000657    1364.09595   1579.04260
  1436.0     0.000696    1364.06958   1570.38477
  1379.0     0.000725    1364.04248   1555.74976
  1379.0     0.000725    1364.01477   1536.45154
  1424.0     0.000702    1363.98645   1514.29114
  1445.0     0.000692    1363.95740   1491.42224
  1441.0     0.000694    1363.92773   1469.85449
  1471.0     0.000680    1363.89746   1451.01123
  1439.0     0.000695    1363.86646   1435.62244
  1444.0     0.000693    1363.83484   1423.83728
  1456.0     0.000687    1363.80261   1415.39844
  1433.0     0.000698    1363.76965   1409.81287
  1407.0     0.000711    1363.73608   1406.49963
  1402.0     0.000713    1363.70178   1404.90027
  1488.0     0.000672    1363.66687   1404.54639
  1452.0     0.000689    1363.63135   1405.08691
  1414.0     0.000707    1363.59497   1406.28528
  1437.0     0.000696    1363.55811   1408.00098
  1383.0     0.000723    1363.52051   1410.42944
  1429.0     0.000700    1363.48218   1412.77271
  1431.0     0.000699    1363.44312   1415.84241
  1380.0     0.000725    1363.40344   1419.43701
  1403.0     0.000713    1363.36316   1423.66895
  1448.0     0.000691    1363.32202   1428.71802
  1440.0     0.000694    1363.28027   1435.83875
  1477.0     0.000677    1363.23792   1444.33777
  1483.0     0.000674    1363.19470   1454.18005
  1536.0     0.000651    1363.15088   1467.04895
  1543.0     0.000648    1363.10632   1484.16028
  1570.0     0.000637    1363.06116   1507.11731
  1633.0     0.000612    1363.01514   1537.96155
  1560.0     0.000641    1362.96851   1579.20654
  1566.0     0.000639    1362.92114   1633.85156
  1740.0     0.000575    1362.87305   1705.38098
  1840.0     0.000543    1362.82422   1797.77820
  1936.0     0.000517    1362.77478   1915.57776
  2053.0     0.000487    1362.72449   2063.82104
  2200.0     0.000455    1362.67358   2247.70068
  2366.0     0.000423    1362.62183   2471.91528
  2683.0     0.000373    1362.56946   2739.54443
  2806.0     0.000356    1362.51624   3050.26050
  3172.0     0.0003153   1362.46240   3398.53198
  3424.0     0.0002921   1362.40771   3772.22559
  3938.0     0.0002539   1362.35242   4151.93652
  4299.0     0.0002326   1362.29639   4511.79053
  4715.0     0.0002121   1362.23950   4821.85498
  5166.0     0.0001936   1362.18188   5052.57324
  5515.0     0.0001813   1362.12354   5182.13672
  5428.0     0.0001842   1362.06458   5205.09375
  5687.0     0.0001758   1362.00476   5134.28711
  5581.0     0.0001792   1361.94409   4991.04395
  5204.0     0.0001922   1361.88281   4791.92871
  4830.0     0.0002070   1361.82068   4543.27783
  4365.0     0.0002291   1361.75793   4245.28027
  3902.0     0.0002563   1361.69421   3901.48682
  3426.0     0.0002919   1361.62988   3526.83423
  2898.0     0.0003451   1361.56470   3146.40479
  2630.0     0.000380    1361.49890   2786.36206
  2305.0     0.000434    1361.43213   2466.38403
  2203.0     0.000454    1361.36475   2197.48608
  1902.0     0.000526    1361.29651   1982.87537
  1806.0     0.000554    1361.22754   1819.66968
  1740.0     0.000575    1361.15771   1700.92151
  1598.0     0.000626    1361.08716   1617.70898
  1621.0     0.000617    1361.01575   1560.96545
  1579.0     0.000633    1360.94360   1522.73987
  1464.0     0.000683    1360.87073   1496.80481
  1606.0     0.000623    1360.79700   1478.70361
  1566.0     0.000639    1360.72253   1465.51929
  1476.0     0.000678    1360.64722   1455.42444
  1501.0     0.000666    1360.57117   1447.34314
  1545.0     0.000647    1360.49426   1440.65686
  1511.0     0.000662    1360.41650   1435.00317
  1465.0     0.000683    1360.33801   1430.16272
  1459.0     0.000685    1360.25867   1425.99182
  1521.0     0.000657    1360.17859   1422.39014
  1563.0     0.000640    1360.09766   1419.28223
  1499.0     0.000667    1360.01599   1416.60962
  1441.0     0.000694    1359.93347   1414.32727
  1402.0     0.000713    1359.85010   1412.39807
  1480.0     0.000676    1359.76587   1410.79456
  1488.0     0.000672    1359.68091   1409.49634
  1418.0     0.000705    1359.59509   1408.48865
  1431.0     0.000699    1359.50842   1407.76416
  1462.0     0.000684    1359.42102   1407.32227
  1458.0     0.000686    1359.33276   1407.17114
  1479.0     0.000676    1359.24365   1407.32837
  1469.0     0.000681    1359.15369   1407.82800
  1451.0     0.000689    1359.06287   1408.62292
  1487.0     0.000672    1358.97119   1410.00122
  1481.0     0.000675    1358.87878   1411.98486
  1446.0     0.000692    1358.78552   1414.75403
  1536.0     0.000651    1358.69141   1418.46948
  1539.0     0.000650    1358.59631   1423.68347
  1542.0     0.000649    1358.50061   1430.78882
  1654.0     0.000605    1358.40393   1440.44324
  1571.0     0.000637    1358.30640   1453.51440
  1652.0     0.000605    1358.20801   1471.11792
  1623.0     0.000616    1358.10889   1494.65588
  1657.0     0.000604    1358.00879   1546.29309
  1658.0     0.000603    1357.90784   1587.57288
  1787.0     0.000560    1357.80603   1640.70129
  1732.0     0.000577    1357.70349   1707.93677
  1877.0     0.000533    1357.59998   1791.37500
  1884.0     0.000531    1357.49561   1892.71619
  2035.0     0.000491    1357.39038   2013.04736
  2191.0     0.000456    1357.28418   2152.56641
  2373.0     0.000421    1357.17725   2310.25024
  2494.0     0.000401    1357.06946   2483.44946
  2745.0     0.000364    1356.96069   2667.39795
  2845.0     0.000351    1356.85107   2854.91040
  3097.0     0.0003229   1356.74072   3036.39551
  3175.0     0.0003150   1356.62939   3199.66968
  3218.0     0.0003108   1356.51721   3329.47534
  3363.0     0.0002974   1356.40405   3407.91943
  3267.0     0.0003061   1356.29016   3417.31055
  3123.0     0.0003202   1356.17529   3345.85107
  3001.0     0.0003332   1356.05945   3194.48120
  2778.0     0.000360    1355.94287   2979.94849
  2618.0     0.000382    1355.82544   2729.99976
  2401.0     0.000416    1355.70703   2473.86475
  2159.0     0.000463    1355.58765   2234.94849
  1961.0     0.000510    1355.46741   2028.20471
  1874.0     0.000534    1355.34644   1860.47925
  1730.0     0.000578    1355.22437   1732.07568
  1672.0     0.000598    1355.10144   1638.80762
  1643.0     0.000609    1354.97766   1574.12476
  1635.0     0.000612    1354.85303   1530.93201
  1556.0     0.000643    1354.72742   1502.83313
  1479.0     0.000676    1354.60095   1484.74719
  1502.0     0.000666    1354.47351   1473.02173
  1446.0     0.000692    1354.34521   1465.23877
  1434.0     0.000697    1354.21606   1459.90417
  1469.0     0.000681    1354.08594   1456.14172
  1477.0     0.000677    1353.95483   1453.45520
  1484.0     0.000674    1353.82288   1451.56506
  1495.0     0.000669    1353.69006   1447.93091
  1516.0     0.000660    1353.55627   1447.26587
  1453.0     0.000688    1353.42151   1447.07300
  1445.0     0.000692    1353.28589   1447.30908
  1421.0     0.000704    1353.14929   1447.94360
  1474.0     0.000678    1353.01184   1448.95581
  1483.0     0.000674    1352.87341   1450.33191
  1462.0     0.000684    1352.73413   1450.14380
  1479.0     0.000676    1352.59387   1452.27368
  1462.0     0.000684    1352.45276   1454.76184
  1425.0     0.000702    1352.31067   1457.61670
  1483.0     0.000674    1352.16760   1460.85156
  1457.0     0.000686    1352.02356   1464.48499
  1482.0     0.000675    1351.87866   1468.54102
  1510.0     0.000662    1351.73279   1473.04785
  1462.0     0.000684    1351.58606   1478.04077
  1400.0     0.000714    1351.43823   1483.56079
  1359.0     0.000736    1351.28967   1489.65735
  1501.0     0.000666    1351.14001   1496.38708
  1550.0     0.000645    1350.98950   1503.81787
  1521.0     0.000657    1350.83801   1512.02795
  1579.0     0.000633    1350.68555   1521.22107
  1501.0     0.000666    1350.53210   1531.28528
  1575.0     0.000635    1350.37781   1542.45728
  1505.0     0.000664    1350.22253   1554.89014
  1593.0     0.000628    1350.06641   1568.76721
  1600.0     0.000625    1349.90918   1584.31470
  1601.0     0.000625    1349.75098   1601.81946
  1715.0     0.000583    1349.59192   1621.66248
  1686.0     0.000593    1349.43188   1644.37524
  1723.0     0.000580    1349.27087   1670.73926
  1850.0     0.000541    1349.10889   1701.94312
  1901.0     0.000526    1348.94604   1739.82849
  2002.0     0.000500    1348.78210   1787.23181
  2133.0     0.000469    1348.61731   1848.43860
  2246.0     0.000445    1348.45154   1929.72278
  2441.0     0.000410    1348.28479   2039.93518
  2707.0     0.000369    1348.11707   2191.07739
  2897.0     0.0003452   1347.94836   2398.79858
  3278.0     0.0003051   1347.77869   2682.74609
  3705.0     0.0002699   1347.60803   3066.70776
  4089.0     0.0002446   1347.43640   3578.41919
  4607.0     0.0002171   1347.26392   4248.94971
  5460.0     0.0001832   1347.09033   5111.77686
  6482.0     0.0001543   1346.91589   6201.43848
  7533.0     0.0001327   1346.74036   7549.96533
  9009.0     0.0001110   1346.56396   9179.19141
  10678.0    0.0000937   1346.38647   11090.63574
  12954.0    0.0000772   1346.20801   13253.17773
  14877.0    0.0000672   1346.02869   15587.74609
  17411.0    0.0000574   1345.84839   17957.16211
  19492.0    0.0000513   1345.66699   20166.21680
  21026.0    0.0000476   1345.48474   21972.66797
  23005.0    0.0000435   1345.30139   23115.52734
  22443.0    0.0000446   1345.11707   23364.07617
  21799.0    0.0000459   1344.93188   22591.59961
  19953.0    0.0000501   1344.74561   20852.64453
  17658.0    0.0000566   1344.55835   18395.71484
  15087.0    0.0000663   1344.37012   15574.57129
  12642.0    0.0000791   1344.18103   12728.08398
  10202.0    0.0000980   1343.99072   10110.33789
  8161.0     0.0001225   1343.79956   7874.70752
  6622.0     0.0001510   1343.60742   6083.59619
  5462.0     0.0001831   1343.41431   4728.10840
  4403.0     0.0002271   1343.22009   3753.56641
  3735.0     0.0002677   1343.02490   3082.32178
  3210.0     0.0003115   1342.82886   2634.60400
  2746.0     0.000364    1342.63171   2340.91211
  2445.0     0.000409    1342.43359   2147.53613
  2283.0     0.000438    1342.23450   2015.80249
  2156.0     0.000464    1342.03442   1922.35742
  2071.0     0.000483    1341.83325   1852.94055
  2071.0     0.000483    1341.63123   1798.10840
  1910.0     0.000524    1341.42810   1752.97632
  1762.0     0.000568    1341.22400   1714.76318
  1829.0     0.000547    1341.01892   1681.81421
  1780.0     0.000562    1340.81287   1653.06958
  1680.0     0.000595    1340.60571   1627.78979
  1688.0     0.000592    1340.39758   1605.42114
  1651.0     0.000606    1340.18848   1585.52820
  1649.0     0.000606    1339.97839   1567.75806
  1621.0     0.000617    1339.76733   1551.81970
  1594.0     0.000627    1339.55518   1537.47119
  1600.0     0.000625    1339.34216   1524.50952
  1576.0     0.000635    1339.12805   1513.45764
  1602.0     0.000624    1338.91296   1502.79785
  1510.0     0.000662    1338.69678   1493.08606
  1576.0     0.000635    1338.47961   1484.21729
  1514.0     0.000661    1338.26147   1476.25549
  1518.0     0.000659    1338.04236   1468.82397
  1539.0     0.000650    1337.82214   1462.01086
  1532.0     0.000653    1337.60095   1455.76782
  1480.0     0.000676    1337.37891   1450.06091
  1461.0     0.000684    1337.15576   1454.93152
  1489.0     0.000672    1336.93152   1450.48706
  1406.0     0.000711    1336.70630   1446.58984
  1446.0     0.000692    1336.48010   1443.28503
  1463.0     0.000684    1336.25293   1440.64404
  1435.0     0.000697    1336.02466   1438.76624
  1417.0     0.000706    1335.79541   1437.77979
  1524.0     0.000656    1335.56519   1437.83655
  1544.0     0.000648    1335.33386   1439.10974
  1432.0     0.000698    1335.10156   1441.78247
  1505.0     0.000664    1334.86829   1446.03308
  1407.0     0.000711    1334.63391   1452.00024
  1540.0     0.000649    1334.39868   1459.72925
  1530.0     0.000654    1334.16223   1469.10559
  1419.0     0.000705    1333.92493   1479.78198
  1445.0     0.000692    1333.68652   1491.10547
  1489.0     0.000672    1333.44727   1502.10022
  1402.0     0.000713    1333.20679   1511.50488
  1455.0     0.000687    1332.96533   1517.89197
  1456.0     0.000687    1332.72290   1519.89050
  1469.0     0.000681    1332.47949   1516.53943
  1475.0     0.000678    1332.23499   1507.72949
  1454.0     0.000688    1331.98950   1494.44812
  1399.0     0.000715    1331.74292   1478.48523
  1385.0     0.000722    1331.49548   1461.78320
  1375.0     0.000727    1331.24695   1445.92908
  1370.0     0.000730    1330.99731   1431.97522
  1377.0     0.000726    1330.74670   1420.45105
  1412.0     0.000708    1330.49512   1411.45300
  1445.0     0.000692    1330.24255   1404.76892
  1405.0     0.000712    1329.98889   1400.01343
  1397.0     0.000716    1329.73425   1396.74707
  1454.0     0.000688    1329.47852   1394.56238
  1391.0     0.000719    1329.22192   1393.12964
  1434.0     0.000697    1328.96411   1392.20740
  1429.0     0.000700    1328.70544   1391.63525
  1395.0     0.000717    1328.44556   1391.31348
  1447.0     0.000691    1328.18481   1391.18530
  1393.0     0.000718    1327.92310   1391.21924
  1419.0     0.000705    1327.66028   1391.40015
  1408.0     0.000710    1327.39648   1391.72217
  1407.0     0.000711    1327.13159   1392.18384
  1388.0     0.000720    1326.86572   1392.78748
  1408.0     0.000710    1326.59875   1393.53687
  1439.0     0.000695    1326.33081   1394.43835
  1467.0     0.000682    1326.06189   1395.50000
  1417.0     0.000706    1325.79199   1396.73120
  1413.0     0.000708    1325.52100   1398.14343
  1374.0     0.000728    1325.24890   1399.74976
  1389.0     0.000720    1324.97595   1401.56689
  1412.0     0.000708    1324.70190   1403.61255
  1487.0     0.000672    1324.42688   1385.84558
  1386.0     0.000722    1324.15076   1388.84900
  1406.0     0.000711    1323.87366   1392.14185
  1446.0     0.000692    1323.59558   1395.75793
  1462.0     0.000684    1323.31641   1399.73755
  1463.0     0.000684    1323.03625   1404.12927
  1493.0     0.000670    1322.75513   1408.99194
  1471.0     0.000680    1322.47290   1414.40076
  1463.0     0.000684    1322.18970   1420.45313
  1547.0     0.000646    1321.90552   1427.28003
  1509.0     0.000663    1321.62024   1435.06128
  1556.0     0.000643    1321.33386   1444.04517
  1604.0     0.000623    1321.04663   1454.57520
  1662.0     0.000602    1320.75830   1467.12134
  1645.0     0.000608    1320.46899   1482.31885
  1723.0     0.000580    1320.17871   1501.01587
  1714.0     0.000583    1319.88733   1524.33105
  1773.0     0.000564    1319.59497   1553.73340
  1879.0     0.000532    1319.30164   1591.13928
  2088.0     0.000479    1319.00720   1639.03564
  2097.0     0.000477    1318.71179   1700.62964
  2217.0     0.000451    1318.41528   1780.01331
  2292.0     0.000436    1318.11780   1882.28711
  2466.0     0.000406    1317.81946   2013.57178
  2732.0     0.000366    1317.52002   2180.94287
  2964.0     0.0003374   1317.21948   2392.29150
  3318.0     0.0003014   1316.91797   2656.11206
  3852.0     0.0002596   1316.61536   2981.36719
  4285.0     0.0002334   1316.31189   3377.40723
  4754.0     0.0002103   1316.00732   3853.86792
  5248.0     0.0001905   1315.70178   4420.65918
  5911.0     0.0001692   1315.39526   5087.90137
  6626.0     0.0001509   1315.08765   5865.71094
  7206.0     0.0001388   1314.77905   6756.67529
  8330.0     0.0001200   1314.46948   7753.80322
  8866.0     0.0001128   1314.15881   8826.96973
  9349.0     0.0001070   1313.84717   9916.37500
  10225.0    0.0000978   1313.53455   10932.16309
  10327.0    0.0000968   1313.22095   11760.59082
  10611.0    0.0000942   1312.90637   12277.42090
  10377.0    0.0000964   1312.59070   12372.41211
  10155.0    0.0000985   1312.27405   11979.83398
  9293.0     0.0001076   1311.95630   11122.63770
  8523.0     0.0001173   1311.63757   9915.35352
  7608.0     0.0001314   1311.31799   8525.05469
  6673.0     0.0001499   1310.99719   7114.74561
  5796.0     0.0001725   1310.67554   5808.98389
  4869.0     0.0002054   1310.35291   4685.00049
  4027.0     0.0002483   1310.02917   3776.47046
  3371.0     0.0002966   1309.70447   3082.28516
  2906.0     0.0003441   1309.37878   2577.93970
  2432.0     0.000411    1309.05212   2226.98291
  2228.0     0.000449    1308.72437   1990.70654
  2022.0     0.000495    1308.39575   1834.60474
  1827.0     0.000547    1308.06604   1731.45288
  1718.0     0.000582    1307.73523   1661.74890
  1666.0     0.000600    1307.40369   1612.59570
  1573.0     0.000636    1307.07092   1576.00818
  1589.0     0.000629    1306.73730   1547.28711
  1549.0     0.000646    1306.40259   1523.63818
  1488.0     0.000672    1306.06689   1503.75159
  1455.0     0.000687    1305.73022   1486.61218
  1414.0     0.000707    1305.39258   1471.65088
  1382.0     0.000724    1305.05396   1458.47742
  1435.0     0.000697    1304.71436   1446.80493
  1461.0     0.000684    1304.37366   1436.40869
  1407.0     0.000711    1304.03210   1427.10779
  1309.0     0.000764    1303.68945   1418.75354
  1354.0     0.000739    1303.34583   1411.22229
  1344.0     0.000744    1303.00122   1404.40979
  1342.0     0.000745    1302.65564   1398.22876
  1384.0     0.000723    1302.30908   1392.60437
  1265.0     0.000791    1301.96155   1387.47375
  1259.0     0.000794    1301.61304   1382.78235
  1318.0     0.000759    1301.26355   1378.48389
  1302.0     0.000768    1300.91296   1374.53821
  1355.0     0.000738    1300.56152   1370.91077
  1382.0     0.000724    1300.20911   1367.57190
  1428.0     0.000700    1299.85559   1364.49524
  1323.0     0.000756    1299.50122   1361.65894
  1311.0     0.000763    1299.14575   1359.04358
  1345.0     0.000743    1298.78943   1356.63208
  1364.0     0.000733    1298.43213   1354.41040
  1365.0     0.000733    1298.07385   1352.36633
  1320.0     0.000758    1297.71448   1350.48889
  1304.0     0.000767    1297.35425   1348.77051
  1343.0     0.000745    1296.99304   1347.20337
  1377.0     0.000726    1296.63074   1345.78223
  1376.0     0.000727    1296.26758   1344.50305
  1348.0     0.000742    1295.90356   1343.36389
  1385.0     0.000722    1295.53833   1342.36304
  1333.0     0.000750    1295.17224   1341.50146
  1310.0     0.000763    1294.80530   1340.78125
  1328.0     0.000753    1294.43726   1340.20691
  1316.0     0.000760    1294.06824   1339.78381
  1305.0     0.000766    1293.69824   1339.52100
  1271.0     0.000787    1293.32739   1339.42993
  1302.0     0.000768    1292.95557   1339.52698
  1451.0     0.000689    1292.58276   1339.83350
  1314.0     0.000761    1292.20898   1340.38098
  1374.0     0.000728    1291.83423   1341.21545
  1388.0     0.000720    1291.45862   1342.40662
  1342.0     0.000745    1291.08191   1344.06104
  1402.0     0.000713    1290.70435   1346.34119
  1427.0     0.000701    1290.32581   1349.49255
  1446.0     0.000692    1289.94629   1353.87366
  1398.0     0.000715    1289.56592   1359.99597
  1517.0     0.000659    1289.18457   1368.56372
  1444.0     0.000693    1288.80212   1380.51855
  1535.0     0.000651    1288.41895   1397.07874
  1497.0     0.000668    1288.03467   1419.77075
  1545.0     0.000647    1287.64954   1450.63562
  1651.0     0.000606    1287.26331   1491.40222
  1663.0     0.000601    1286.87634   1544.57019
  1701.0     0.000588    1286.48840   1612.71362
  1753.0     0.000570    1286.09937   1697.30847
  1787.0     0.000560    1285.70959   1799.82703
  1840.0     0.000543    1285.31873   1920.14697
  1922.0     0.000520    1284.92700   2056.27588
  2077.0     0.000481    1284.53430   2203.92261
  2157.0     0.000464    1284.14075   2356.44653
  2226.0     0.000449    1283.74622   2504.57788
  2291.0     0.000436    1283.35071   2640.01807
  2192.0     0.000456    1282.95435   2753.01636
  2451.0     0.000408    1282.55713   2837.53662
  2449.0     0.000408    1282.15881   2893.03076
  2529.0     0.000395    1281.75964   2924.04785
  2686.0     0.000372    1281.35962   2936.76611
  2552.0     0.000392    1280.95862   2933.40869
  2500.0     0.000400    1280.55664   2910.88916
  2510.0     0.000398    1280.15381   2851.91309
  2400.0     0.000417    1279.75012   2768.44873
  2183.0     0.000458    1279.34546   2646.53442
  2129.0     0.000470    1278.93994   2490.94434
  2062.0     0.000485    1278.53333   2314.67993
  1969.0     0.000508    1278.12598   2133.92456
  1868.0     0.000535    1277.71765   1962.86926
  1813.0     0.000552    1277.30847   1811.32312
  1751.0     0.000571    1276.89832   1684.43799
  1722.0     0.000581    1276.48730   1583.32983
  1612.0     0.000620    1276.07544   1506.11353
  1497.0     0.000668    1275.66260   1449.13538
  1486.0     0.000673    1275.24878   1408.11682
  1515.0     0.000660    1274.83423   1378.97058
  1429.0     0.000700    1274.41870   1358.45386
  1430.0     0.000699    1274.00220   1343.62927
  1347.0     0.000742    1273.58496   1332.61511
  1371.0     0.000729    1273.16675   1324.25134
  1340.0     0.000746    1272.74768   1317.71606
  1301.0     0.000769    1272.32764   1312.47485
  1354.0     0.000739    1271.90686   1308.17139
  1282.0     0.000780    1271.48511   1304.56189
  1236.0     0.000809    1271.06238   1301.47424
  1313.0     0.000762    1270.63892   1298.78638
  1259.0     0.000794    1270.21448   1296.40967
  1341.0     0.000746    1269.78918   1294.28284
  1227.0     0.000815    1269.36316   1292.36023
  1220.0     0.000820    1268.93604   1290.60864
  1281.0     0.000781    1268.50818   1289.00403
  1341.0     0.000746    1268.07935   1287.52673
  1379.0     0.000725    1267.64978   1286.16150
  1302.0     0.000768    1267.21924   1284.89624
  1285.0     0.000778    1266.78784   1283.72009
  1280.0     0.000781    1266.35559   1282.62476
  1286.0     0.000778    1265.92249   1281.60327
  1292.0     0.000774    1265.48853   1280.64966
  1295.0     0.000772    1265.05371   1279.75867
  1278.0     0.000782    1264.61804   1278.92676
  1215.0     0.000823    1264.18140   1278.15063
  1225.0     0.000816    1263.74402   1277.42773
  1289.0     0.000776    1263.30579   1276.75708
  1227.0     0.000815    1262.86670   1276.13721
  1204.0     0.000831    1262.42676   1275.56873
  1259.0     0.000794    1261.98596   1275.05115
  1188.0     0.000842    1261.54431   1274.58716
  1256.0     0.000796    1261.10181   1274.17896
  1186.0     0.000843    1260.65845   1273.83032
  1284.0     0.000779    1260.21423   1273.54688
  1314.0     0.000761    1259.76929   1273.33716
  1287.0     0.000777    1259.32336   1273.21399
  1227.0     0.000815    1258.87671   1273.19653
  1212.0     0.000825    1258.42932   1273.31519
  1208.0     0.000828    1257.98096   1273.61670
  1215.0     0.000823    1257.53174   1274.17261
  1288.0     0.000776    1257.08167   1275.09106
  1164.0     0.000859    1256.63086   1276.52991
  1210.0     0.000826    1256.17920   1278.71399
  1228.0     0.000814    1255.72681   1281.95154
  1291.0     0.000775    1255.27344   1286.65332
  1231.0     0.000812    1254.81946   1293.34619
  1294.0     0.000773    1254.36450   1302.67725
  1341.0     0.000746    1253.90869   1315.40271
  1342.0     0.000745    1253.45215   1332.35120
  1322.0     0.000756    1252.99487   1354.35474
  1371.0     0.000729    1252.53662   1382.13403
  1410.0     0.000709    1252.07764   1416.11719
  1455.0     0.000687    1251.61780   1456.23022
  1555.0     0.000643    1251.15723   1501.73901
  1473.0     0.000679    1250.69592   1550.82996
  1557.0     0.000642    1250.23376   1600.77832
  1692.0     0.000591    1249.77075   1647.81299
  1670.0     0.000599    1249.30701   1688.15100
  1669.0     0.000599    1248.84241   1715.67798
  1682.0     0.000595    1248.37708   1727.21960
  1700.0     0.000588    1247.91089   1720.65320
  1698.0     0.000589    1247.44397   1696.10010
  1665.0     0.000601    1246.97632   1656.56226
  1619.0     0.000618    1246.50781   1605.18774
  1513.0     0.000661    1246.03857   1548.26953
  1497.0     0.000668    1245.56848   1491.43848
  1352.0     0.000740    1245.09766   1439.10107
  1376.0     0.000727    1244.62610   1393.98987
  1391.0     0.000719    1244.15369   1357.27637
  1323.0     0.000756    1243.68054   1328.00684
  1282.0     0.000780    1243.20679   1307.15747
  1228.0     0.000814    1242.73206   1292.52283
  1202.0     0.000832    1242.25659   1282.74194
  1266.0     0.000790    1241.78040   1276.60364
  1232.0     0.000812    1241.30347   1273.18079
  1261.0     0.000793    1240.82568   1271.87524
  1196.0     0.000836    1240.34729   1272.40564
  1243.0     0.000805    1239.86804   1273.61951
  1183.0     0.000845    1239.38806   1278.06445
  1212.0     0.000825    1238.90747   1284.97156
  1205.0     0.000830    1238.42590   1294.87305
  1312.0     0.000762    1237.94373   1308.35974
  1259.0     0.000794    1237.46082   1325.99084
  1357.0     0.000737    1236.97705   1348.17480
  1302.0     0.000768    1236.49268   1375.00269
  1363.0     0.000734    1236.00745   1406.02881
  1274.0     0.000785    1235.52161   1440.17676
  1384.0     0.000723    1235.03503   1475.50061
  1385.0     0.000722    1234.54773   1509.25281
  1347.0     0.000742    1234.05957   1538.02075
  1432.0     0.000698    1233.57080   1558.08936
  1440.0     0.000694    1233.08130   1566.05151
  1432.0     0.000698    1232.59106   1559.72668
  1408.0     0.000710    1232.09998   1539.15613
  1320.0     0.000758    1231.60840   1506.97656
  1358.0     0.000736    1231.11609   1467.63086
  1332.0     0.000751    1230.62292   1425.91858
  1303.0     0.000767    1230.12915   1385.85278
  1297.0     0.000771    1229.63464   1350.18555
  1182.0     0.000846    1229.13940   1320.39087
  1243.0     0.000805    1228.64343   1296.85364
  1243.0     0.000805    1228.14685   1279.16077
  1236.0     0.000809    1227.64954   1266.41846
  1153.0     0.000867    1227.15149   1257.54761
  1171.0     0.000854    1226.65283   1251.50378
  1134.0     0.000882    1226.15344   1247.40710
  1243.0     0.000805    1225.65344   1244.59033
  1103.0     0.000907    1225.15259   1242.58765
  1121.0     0.000892    1224.65112   1241.09778
  1155.0     0.000866    1224.14905   1239.93652
  1164.0     0.000859    1223.64624   1238.99731
  1155.0     0.000866    1223.14270   1238.21948
  1132.0     0.000883    1222.63867   1237.56970
  1139.0     0.000878    1222.13379   1237.02991
  1190.0     0.000840    1221.62830   1236.58984
  1228.0     0.000814    1221.12219   1236.24426
  1171.0     0.000854    1220.61523   1235.99133
  1212.0     0.000825    1220.10779   1235.83179
  1198.0     0.000835    1219.59961   1235.76843
  1174.0     0.000852    1219.09082   1235.80713
  1163.0     0.000860    1218.58142   1235.95544
  1207.0     0.000829    1218.07129   1236.22473
  1189.0     0.000841    1217.56055   1236.63086
  1195.0     0.000837    1217.04907   1237.19653
  1225.0     0.000816    1216.53711   1237.95361
  1232.0     0.000812    1216.02441   1238.94922
  1162.0     0.000861    1215.51099   1240.25366
  1205.0     0.000830    1214.99707   1241.97217
  1204.0     0.000831    1214.48242   1244.26172
  1225.0     0.000816    1213.96716   1247.35510
  1229.0     0.000814    1213.45129   1251.58936
  1317.0     0.000759    1212.93481   1257.44421
  1253.0     0.000798    1212.41772   1265.58191
  1322.0     0.000756    1211.89990   1276.88745
  1394.0     0.000717    1211.38159   1292.50830
  1376.0     0.000727    1210.86255   1313.87720
  1354.0     0.000739    1210.34290   1342.70630
  1455.0     0.000687    1209.82275   1380.93005
  1415.0     0.000707    1209.30200   1430.57141
  1509.0     0.000663    1208.78052   1493.53186
  1611.0     0.000621    1208.25842   1571.29346
  1578.0     0.000634    1207.73572   1664.51111
  1632.0     0.000613    1207.21252   1772.51709
  1769.0     0.000565    1206.68860   1892.88708
  1908.0     0.000524    1206.16418   2021.18958
  1931.0     0.000518    1205.63928   2150.94019
  1986.0     0.000504    1205.11365   2273.81641
  2040.0     0.000490    1204.58740   2380.13379
  1972.0     0.000507    1204.06055   2459.69165
  2087.0     0.000479    1203.53320   2504.59106
  2110.0     0.000474    1203.00513   2510.42920
  2068.0     0.000484    1202.47656   2477.65723
  2105.0     0.000475    1201.94751   2414.42090
  2034.0     0.000492    1201.41772   2322.54541
  1861.0     0.000537    1200.88757   2202.49805
  1870.0     0.000535    1200.35669   2066.63354
  1796.0     0.000557    1199.82532   1925.09192
  1654.0     0.000605    1199.29333   1788.16675
  1557.0     0.000642    1198.76074   1663.92139
  1490.0     0.000671    1198.22766   1557.20300
  1514.0     0.000661    1197.69409   1469.88013
  1377.0     0.000726    1197.15979   1401.52368
  1375.0     0.000727    1196.62512   1350.14868
  1338.0     0.000747    1196.08984   1312.91174
  1322.0     0.000756    1195.55408   1286.71057
  1364.0     0.000733    1195.01770   1268.63562
  1260.0     0.000794    1194.48071   1256.24231
  1268.0     0.000789    1193.94324   1247.64917
  1178.0     0.000849    1193.40527   1241.51709
  1232.0     0.000812    1192.86670   1236.95227
  1220.0     0.000820    1192.32776   1233.39001
  1241.0     0.000806    1191.78809   1230.48792
  1238.0     0.000808    1191.24792   1228.04333
  1236.0     0.000809    1190.70728   1225.93494
  1122.0     0.000891    1190.16614   1224.08899
  1158.0     0.000864    1189.62451   1222.45764
  1215.0     0.000823    1189.08228   1221.00806
  1192.0     0.000839    1188.53955   1219.71814
  1174.0     0.000852    1187.99634   1218.57068
  1112.0     0.000899    1187.45276   1217.55176
  1110.0     0.000901    1186.90845   1216.65002
  1153.0     0.000867    1186.36377   1215.85669
  1164.0     0.000859    1185.81860   1214.96851
  1225.0     0.000816    1185.27283   1214.27368
  1175.0     0.000851    1184.72656   1213.76855
  1212.0     0.000825    1184.17993   1213.34680
  1180.0     0.000847    1183.63269   1213.00488
  1159.0     0.000863    1183.08508   1212.74048
  1176.0     0.000850    1182.53699   1212.55237
  1212.0     0.000825    1181.98828   1212.43921
  1196.0     0.000836    1181.43921   1212.40112
  1209.0     0.000827    1180.88953   1212.43884
  1181.0     0.000847    1180.33948   1212.55469
  1227.0     0.000815    1179.78894   1212.74988
  1196.0     0.000836    1179.23792   1213.02771
  1164.0     0.000859    1178.68652   1213.39172
  1123.0     0.000890    1178.13464   1213.84668
  1182.0     0.000846    1177.58228   1214.39722
  1157.0     0.000864    1177.02942   1215.04919
  1129.0     0.000886    1176.47607   1215.80994
  1140.0     0.000877    1175.92236   1216.68750
  1123.0     0.000890    1175.36816   1217.69067
  1145.0     0.000873    1174.81348   1218.83032
  1164.0     0.000859    1174.25842   1220.11841
  1171.0     0.000854    1173.70288   1221.56836
  1182.0     0.000846    1173.14697   1223.19568
  1191.0     0.000840    1172.59058   1225.01843
  1153.0     0.000867    1172.03369   1227.05688
  1166.0     0.000858    1171.47644   1229.33496
  1176.0     0.000850    1170.91882   1231.87878
  1174.0     0.000852    1170.36060   1234.71997
  1152.0     0.000868    1169.80212   1237.89478
  1185.0     0.000844    1169.24329   1241.44495
  1233.0     0.000811    1168.68384   1246.30957
  1212.0     0.000825    1168.12402   1250.78674
  1231.0     0.000812    1167.56384   1255.81543
  1207.0     0.000829    1167.00317   1261.47803
  1250.0     0.000800    1166.44214   1267.87634
  1262.0     0.000792    1165.88074   1275.13953
  1247.0     0.000802    1165.31897   1284.16418
  1238.0     0.000808    1164.75684   1293.75232
  1281.0     0.000781    1164.19421   1304.96313
  1286.0     0.000778    1163.63123   1318.32837
  1363.0     0.000734    1163.06787   1334.67505
  1301.0     0.000769    1162.50403   1355.29431
  1443.0     0.000693    1161.93982   1382.17737
  1543.0     0.000648    1161.37537   1418.39844
  1586.0     0.000631    1160.81042   1468.21191
  1620.0     0.000617    1160.24512   1537.91516
  1716.0     0.000583    1159.67957   1636.01404
  1896.0     0.000527    1159.11353   1773.67566
  2154.0     0.000464    1158.54712   1964.91394
  2414.0     0.000414    1157.98035   2226.36108
  2944.0     0.0003397   1157.41321   2576.32764
  3287.0     0.0003042   1156.84570   3032.80737
  3792.0     0.0002637   1156.27783   3610.59863
  4371.0     0.0002288   1155.70959   4316.84814
  5167.0     0.0001935   1155.14111   5146.19434
  6019.0     0.0001661   1154.57227   6075.50195
  6876.0     0.0001454   1154.00293   7059.45801
  8032.0     0.0001245   1153.43335   8032.51563
  8913.0     0.0001122   1152.86340   8907.29980
  9314.0     0.0001074   1152.29321   9585.15430
  9904.0     0.0001010   1151.72253   9968.54883
  9901.0     0.0001010   1151.15161   9984.64453
  9726.0     0.0001028   1150.58044   9607.93750
  9062.0     0.0001104   1150.00879   8881.08496
  7925.0     0.0001262   1149.43689   7906.06787
  6730.0     0.0001486   1148.86462   6810.53613
  5720.0     0.0001748   1148.29211   5712.30566
  4695.0     0.0002130   1147.71924   4699.88428
  3792.0     0.0002637   1147.14600   3827.84424
  3145.0     0.0003180   1146.57251   3119.72900
  2652.0     0.000377    1145.99866   2574.38257
  2305.0     0.000434    1145.42468   2173.88818
  2003.0     0.000499    1144.85022   1891.62805
  1799.0     0.000556    1144.27551   1699.05994
  1631.0     0.000613    1143.70044   1570.33777
  1470.0     0.000680    1143.12512   1484.64819
  1463.0     0.000684    1142.54956   1426.70898
  1382.0     0.000724    1141.97363   1386.13135
  1321.0     0.000757    1141.39746   1363.67712
  1335.0     0.000749    1140.82117   1340.73450
  1374.0     0.000728    1140.24438   1322.18518
  1331.0     0.000751    1139.66736   1306.67810
  1332.0     0.000751    1139.09009   1293.42200
  1267.0     0.000789    1138.51257   1281.92932
  1262.0     0.000792    1137.93469   1271.87878
  1284.0     0.000779    1137.35657   1269.06946
  1242.0     0.000805    1136.77820   1261.40674
  1237.0     0.000808    1136.19971   1254.65125
  1280.0     0.000781    1135.62073   1248.69287
  1317.0     0.000759    1135.04163   1243.44226
  1248.0     0.000801    1134.46228   1238.82581
  1201.0     0.000833    1133.88257   1234.78455
  1176.0     0.000850    1133.30273   1231.27100
  1241.0     0.000806    1132.72253   1228.24829
  1219.0     0.000820    1132.14221   1225.68896
  1130.0     0.000885    1131.56152   1223.57507
  1123.0     0.000890    1130.98083   1221.90027
  1189.0     0.000841    1130.39966   1220.66943
  1208.0     0.000828    1129.81836   1219.90674
  1246.0     0.000803    1129.23682   1219.66089
  1193.0     0.000838    1128.65503   1220.02136
  1255.0     0.000797    1128.07300   1221.13574
  1283.0     0.000779    1127.49084   1223.24060
  1179.0     0.000848    1126.90833   1226.69861
  1274.0     0.000785    1126.32581   1232.04871
  1211.0     0.000826    1125.74292   1240.06067
  1210.0     0.000826    1125.15991   1251.79822
  1302.0     0.000768    1124.57654   1268.67358
  1300.0     0.000769    1123.99304   1292.48352
  1338.0     0.000747    1123.40942   1325.39661
  1376.0     0.000727    1122.82544   1369.85583
  1437.0     0.000696    1122.24146   1428.36536
  1420.0     0.000704    1121.65723   1503.76709
  1497.0     0.000668    1121.07275   1596.31494
  1580.0     0.000633    1120.48804   1706.80200
  1724.0     0.000580    1119.90332   1833.55432
  1787.0     0.000560    1119.31824   1972.63257
  1932.0     0.000518    1118.73303   2117.67163
  2138.0     0.000468    1118.14758   2260.02271
  2225.0     0.000449    1117.56213   2389.37524
  2394.0     0.000418    1116.97632   2494.98169
  2549.0     0.000392    1116.39063   2567.74854
  2575.0     0.000388    1115.80444   2602.87012
  2550.0     0.000392    1115.21826   2601.14917
  2534.0     0.000395    1114.63184   2567.22559
  2413.0     0.000414    1114.04529   2506.18652
  2323.0     0.000430    1113.45862   2421.64185
  2205.0     0.000454    1112.87183   2316.42993
  2195.0     0.000456    1112.28479   2194.82959
  1958.0     0.000511    1111.69775   2063.96997
  1859.0     0.000538    1111.11047   1932.75513
  1706.0     0.000586    1110.52295   1809.29883
  1691.0     0.000591    1109.93542   1699.16138
  1517.0     0.000659    1109.34766   1605.05078
  1512.0     0.000661    1108.75989   1527.33569
  1458.0     0.000686    1108.17188   1464.82593
  1467.0     0.000682    1107.58374   1415.59155
  1393.0     0.000718    1106.99561   1377.59009
  1406.0     0.000711    1106.40723   1351.60950
  1434.0     0.000697    1105.81885   1330.77515
  1424.0     0.000702    1105.23022   1316.32007
  1450.0     0.000690    1104.64148   1307.15369
  1419.0     0.000705    1104.05261   1302.43628
  1425.0     0.000702    1103.46375   1301.53235
  1367.0     0.000732    1102.87463   1303.97156
  1463.0     0.000684    1102.28552   1309.43347
  1475.0     0.000678    1101.69641   1317.76282
  1498.0     0.000668    1101.10706   1331.09570
  1567.0     0.000638    1100.51758   1345.63611
  1669.0     0.000599    1099.92810   1364.13879
  1745.0     0.000573    1099.33850   1387.87256
  1901.0     0.000526    1098.74866   1415.23438
  1900.0     0.000526    1098.15894   1452.35474
  1973.0     0.000507    1097.56909   1509.17432
  2226.0     0.000449    1096.97913   1587.85437
  2397.0     0.000417    1096.38916   1697.61926
  2556.0     0.000391    1095.79895   1850.66479
  2884.0     0.0003467   1095.20886   2062.40723
  3326.0     0.0003007   1094.61853   2351.27710
  3659.0     0.0002733   1094.02820   2737.76025
  4248.0     0.0002354   1093.43787   3242.38574
  4746.0     0.0002107   1092.84741   3882.61084
  5529.0     0.0001809   1092.25696   4668.80713
  6318.0     0.0001583   1091.66638   5599.63379
  7087.0     0.0001411   1091.07581   6657.60107
  7665.0     0.0001305   1090.48511   7806.24561
  8408.0     0.0001189   1089.89429   8989.53223
  9281.0     0.0001077   1089.30359   10133.90234
  9986.0     0.0001001   1088.71277   11154.27148
  10551.0    0.0000948   1088.12195   11965.26563
  11066.0    0.0000904   1087.53101   12499.31641
  10939.0    0.0000914   1086.94019   12727.42773
  11052.0    0.0000905   1086.34924   12666.20605
  11350.0    0.0000881   1085.75818   12359.12891
  10535.0    0.0000949   1085.16724   11847.35645
  10294.0    0.0000971   1084.57617   11154.75488
  9872.0     0.0001013   1083.98511   10294.09668
  8774.0     0.0001140   1083.39392   9286.50586
  7816.0     0.0001279   1082.80286   8178.15723
  6902.0     0.0001449   1082.21179   7038.19482
  5863.0     0.0001706   1081.62073   5938.68555
  5024.0     0.0001990   1081.02954   4937.55908
  4336.0     0.0002306   1080.43835   4071.19727
  3604.0     0.0002775   1079.84717   3355.61792
  3151.0     0.0003174   1079.25610   2790.10449
  2629.0     0.000380    1078.66492   2361.62012
  2365.0     0.000423    1078.07373   2049.59009
  2130.0     0.000469    1077.48267   1830.53088
  1878.0     0.000532    1076.89148   1681.84814
  1809.0     0.000553    1076.30042   1584.33508
  1687.0     0.000593    1075.70923   1523.29785
  1652.0     0.000605    1075.11816   1488.57300
  1611.0     0.000621    1074.52710   1473.84338
  1560.0     0.000641    1073.93591   1475.62683
  1630.0     0.000613    1073.34497   1492.19971
  1584.0     0.000631    1072.75391   1522.59375
  1644.0     0.000608    1072.16296   1565.73120
  1688.0     0.000592    1071.57202   1619.71375
  1862.0     0.000537    1070.98108   1681.30786
  1955.0     0.000512    1070.39026   1745.71362
  2050.0     0.000488    1069.79932   1806.64880
  2130.0     0.000469    1069.20850   1856.77014
  2196.0     0.000455    1068.61780   1888.51233
  2050.0     0.000488    1068.02710   1895.42993
  2106.0     0.000475    1067.43640   1874.08948
  2021.0     0.000495    1066.84583   1825.87085
  1940.0     0.000515    1066.25525   1757.15808
  1803.0     0.000555    1065.66479   1677.24561
  1767.0     0.000566    1065.07422   1595.50500
  1625.0     0.000615    1064.48389   1519.60327
  1639.0     0.000610    1063.89355   1454.98059
  1482.0     0.000675    1063.30334   1404.15625
  1568.0     0.000638    1062.71313   1370.69739
  1523.0     0.000657    1062.12305   1354.66589
  1506.0     0.000664    1061.53296   1356.88489
  1556.0     0.000643    1060.94299   1378.76355
  1626.0     0.000615    1060.35303   1422.81860
  1678.0     0.000596    1059.76331   1492.21777
  1677.0     0.000596    1059.17346   1593.49878
  1834.0     0.000545    1058.58386   1731.76001
  1962.0     0.000510    1057.99426   1912.53088
  1993.0     0.000502    1057.40491   2139.67627
  2205.0     0.000454    1056.81555   2413.79858
  2512.0     0.000398    1056.22620   2730.63159
  2705.0     0.000370    1055.63708   3079.82153
  3102.0     0.0003224   1055.04797   3446.54150
  3333.0     0.0003000   1054.45898   3804.47095
  3772.0     0.0002651   1053.87012   4129.18750
  4179.0     0.0002393   1053.28125   4394.50488
  4420.0     0.0002262   1052.69275   4576.96240
  4777.0     0.0002093   1052.10413   4666.78809
  4972.0     0.0002011   1051.51575   4670.93066
  5183.0     0.0001929   1050.92737   4611.44238
  5130.0     0.0001949   1050.33923   4514.61279
  5029.0     0.0001988   1049.75110   4399.60254
  4639.0     0.0002156   1049.16321   4273.04932
  4484.0     0.0002230   1048.57532   4129.50488
  4035.0     0.0002478   1047.98767   3955.98047
  3616.0     0.0002765   1047.40015   3739.42700
  3202.0     0.0003123   1046.81274   3475.28174
  2879.0     0.0003473   1046.22534   3172.44995
  2450.0     0.000408    1045.63818   2850.51514
  2129.0     0.000470    1045.05127   2532.01294
  1917.0     0.000522    1044.46436   2236.13989
  1775.0     0.000563    1043.87769   1976.13660
  1567.0     0.000638    1043.29102   1758.95093
  1481.0     0.000675    1042.70459   1585.90063
  1334.0     0.000750    1042.11829   1453.90808
  1261.0     0.000793    1041.53223   1357.07117
  1312.0     0.000762    1040.94617   1288.26184
  1249.0     0.000801    1040.36047   1240.44263
  1186.0     0.000843    1039.77490   1207.52039
  1214.0     0.000824    1039.18921   1184.73364
  1123.0     0.000890    1038.60400   1168.67310
  1122.0     0.000891    1038.01880   1157.09033
  1108.0     0.000903    1037.43384   1148.63049
  1109.0     0.000902    1036.84900   1142.57458
  1164.0     0.000859    1036.26440   1138.63538
  1090.0     0.000917    1035.68005   1136.80994
  1075.0     0.000930    1035.09570   1137.27673
  1080.0     0.000926    1034.51172   1133.01367
  1102.0     0.000907    1033.92761   1139.05725
  1101.0     0.000908    1033.34399   1148.14941
  1107.0     0.000903    1032.76038   1160.29541
  1137.0     0.000880    1032.17712   1175.19702
  1032.0     0.000969    1031.59387   1192.15002
  1101.0     0.000908    1031.01099   1204.06177
  1080.0     0.000926    1030.42834   1221.31287
  1115.0     0.000897    1029.84570   1235.92029
  1107.0     0.000903    1029.26343   1245.83447
  1121.0     0.000892    1028.68115   1249.20984
  1103.0     0.000907    1028.09937   1244.88855
  1026.0     0.000975    1027.51746   1232.90491
  1146.0     0.000873    1026.93604   1214.66931
  1059.0     0.000944    1026.35461   1192.53284
  1090.0     0.000917    1025.77368   1169.02441
  1102.0     0.000907    1025.19287   1146.27502
  1141.0     0.000876    1024.61206   1125.78748
  1166.0     0.000858    1024.03174   1108.42322
  1097.0     0.000912    1023.45148   1094.47998
  1095.0     0.000913    1022.87158   1083.82495
  1116.0     0.000896    1022.29169   1076.04602
  1116.0     0.000896    1021.71228   1070.60376
  1050.0     0.000952    1021.13312   1066.94995
  1069.0     0.000935    1020.55389   1064.60425
  1103.0     0.000907    1019.97522   1063.19226
  1166.0     0.000858    1019.39648   1062.44617
  1101.0     0.000908    1018.81830   1062.19348
  1101.0     0.000908    1018.24005   1062.33252
  1071.0     0.000934    1017.66229   1062.81433
  1102.0     0.000907    1017.08459   1063.62463
  1194.0     0.000838    1016.50732   1064.77539
  1210.0     0.000826    1015.93036   1066.30042
  1167.0     0.000857    1015.35339   1068.25696
  1119.0     0.000894    1014.77692   1070.12891
  1188.0     0.000842    1014.20044   1073.28918
  1177.0     0.000850    1013.62451   1077.34338
  1236.0     0.000809    1013.04858   1082.65076
  1291.0     0.000775    1012.47314   1089.77588
  1336.0     0.000749    1011.89777   1099.58435
  1330.0     0.000752    1011.32281   1113.37280
  1316.0     0.000760    1010.74817   1133.01819
  1416.0     0.000706    1010.17358   1161.13879
  1512.0     0.000661    1009.59949   1201.23792
  1647.0     0.000607    1009.02551   1257.77563
  1646.0     0.000608    1008.45197   1336.10010
  1766.0     0.000566    1007.87848   1442.13367
  1990.0     0.000503    1007.30554   1581.71655
  2152.0     0.000465    1006.73285   1759.56104
  2239.0     0.000447    1006.16022   1977.89514
  2488.0     0.000402    1005.58813   2234.95630
  2647.0     0.000378    1005.01611   2523.51001
  2903.0     0.0003445   1004.44458   2829.79834
  3140.0     0.0003185   1003.87311   3133.49536
  3183.0     0.0003142   1003.30225   3408.76172
  3246.0     0.0003081   1002.73132   3626.50000
  3407.0     0.0002935   1002.16107   3758.53394
  3385.0     0.0002954   1001.59100   3783.82788
  3238.0     0.0003088   1001.02112   3695.33887
  3048.0     0.0003281   1000.45166   3500.92700
  2888.0     0.0003463   999.88232    3230.87280
  2608.0     0.000383    999.31354    2914.54761
  2376.0     0.000421    998.74487    2584.21509
  2205.0     0.000454    998.17670    2267.25073
  1958.0     0.000511    997.60864    1983.37366
  1907.0     0.000524    997.04108    1743.05823
  1821.0     0.000549    996.47388    1549.85950
  1662.0     0.000602    995.90674    1401.44226
  1517.0     0.000659    995.34021    1289.89807
  1438.0     0.000695    994.77374    1211.84106
  1437.0     0.000696    994.20782    1157.62048
  1330.0     0.000752    993.64203    1120.52576
  1372.0     0.000729    993.07678    1095.17249
  1244.0     0.000804    992.51184    1077.56567
  1256.0     0.000796    991.94708    1064.93298
  1157.0     0.000864    991.38281    1055.45715
  1192.0     0.000839    990.81873    1047.99902
  1161.0     0.000861    990.25513    1041.86951
  1179.0     0.000848    989.69171    1036.65735
  1159.0     0.000863    989.12885    1033.55042
  1103.0     0.000907    988.56610    1029.55945
  1116.0     0.000896    988.00391    1025.98706
  1111.0     0.000900    987.44214    1022.76300
  1059.0     0.000944    986.88043    1019.83374
  1100.0     0.000909    986.31927    1017.15820
  1066.0     0.000938    985.75830    1014.70209
  1093.0     0.000915    985.19794    1012.43756
  1055.0     0.000948    984.63763    1010.34070
  1030.0     0.000971    984.07794    1008.39185
  1015.0     0.000985    983.51843    1006.57361
  1050.0     0.000952    982.95947    1004.87177
  1065.0     0.000939    982.40088    1003.27374
  1044.0     0.000958    981.84247    1001.76813
  996.0      0.001004    981.28461    1000.34637
  1012.0     0.000988    980.72687    999.07886
  1070.0     0.000935    980.16980    997.80231
  1077.0     0.000929    979.61285    996.58759
  1015.0     0.000985    979.05646    995.42981
  973.0      0.001028    978.50049    994.32391
  949.0      0.001054    977.94470    993.26544
  1058.0     0.000945    977.38947    992.25134
  1059.0     0.000944    976.83441    991.10968
  971.0      0.001030    976.27997    990.17810
  983.0      0.001017    975.72571    989.28162
  1025.0     0.000976    975.17206    988.41870
  999.0      0.001001    974.61853    987.58679
  1019.0     0.000981    974.06567    986.78497
  1017.0     0.000983    973.51318    986.01135
  992.0      0.001008    972.96088    985.26465
  1000.0     0.001000    972.40918    984.54431
  1009.0     0.000991    971.85767    983.84900
  980.0      0.001020    971.30676    983.17853
  984.0      0.001016    970.75604    982.53204
  1014.0     0.000986    970.20593    981.90948
  970.0      0.001031    969.65607    981.31055
  979.0      0.001021    969.10675    980.73535
  980.0      0.001020    968.55792    980.18420
  988.0      0.001012    968.00922    980.24530
  1025.0     0.000976    967.46118    980.34113
  993.0      0.001007    966.91333    979.89075
  945.0      0.001058    966.36609    979.46777
  935.0      0.001070    965.81909    979.07294
  1009.0     0.000991    965.27271    978.70819
  954.0      0.001048    964.72675    978.37500
  935.0      0.001070    964.18097    978.07532
  991.0      0.001009    963.63586    977.93848
  990.0      0.001010    963.09094    978.94843
  999.0      0.001001    962.54669    978.79675
  976.0      0.001025    962.00262    978.69196
  934.0      0.001071    961.45923    978.63989
  992.0      0.001008    960.91602    978.64575
  1031.0     0.000970    960.37347    978.71808
  925.0      0.001081    959.83136    978.86707
  944.0      0.001059    959.28949    979.10748
  1018.0     0.000982    958.74823    979.46094
  952.0      0.001050    958.20721    979.96008
  929.0      0.001076    957.66681    980.65472
  1019.0     0.000981    957.12671    981.61951
  992.0      0.001008    956.58722    982.96686
  935.0      0.001070    956.04797    984.85834
  981.0      0.001019    955.50940    987.52216
  984.0      0.001016    954.97125    991.26428
  1027.0     0.000974    954.43335    996.47821
  1037.0     0.000964    953.89612    1003.64197
  1026.0     0.000975    953.35907    1013.29089
  1036.0     0.000965    952.82275    1025.96594
  1038.0     0.000963    952.28662    1042.12085
  1099.0     0.000910    951.75122    1060.00232
  1018.0     0.000982    951.21625    1083.56995
  1027.0     0.000974    950.68152    1109.58362
  1162.0     0.000861    950.14746    1138.31274
  1113.0     0.000898    949.61365    1167.53711
  1092.0     0.000916    949.08051    1195.36584
  1092.0     0.000916    948.54767    1219.84290
  1206.0     0.000829    948.01544    1239.37122
  1241.0     0.000806    947.48352    1253.33167
  1268.0     0.000789    946.95221    1262.82031
  1280.0     0.000781    946.42139    1271.15747
  1368.0     0.000731    945.89087    1283.67651
  1419.0     0.000705    945.36102    1316.25342
  1474.0     0.000678    944.83142    1356.55359
  1511.0     0.000662    944.30255    1419.21570
  1625.0     0.000615    943.77386    1507.76990
  1704.0     0.000587    943.24591    1623.05225
  1705.0     0.000587    942.71826    1762.44763
  1727.0     0.000579    942.19122    1919.35156
  1928.0     0.000519    941.66473    2083.03296
  1968.0     0.000508    941.13849    2239.16235
  2003.0     0.000499    940.61298    2371.04712
  2023.0     0.000494    940.08771    2461.52393
  2007.0     0.000498    939.56311    2495.89966
  2042.0     0.000490    939.03882    2465.92993
  2048.0     0.000488    938.51526    2373.63574
  1923.0     0.000520    937.99213    2231.89087
  1955.0     0.000512    937.46930    2060.31323
  1838.0     0.000544    936.94714    1879.25879
  1706.0     0.000586    936.42535    1705.64026
  1648.0     0.000607    935.90417    1551.31482
  1567.0     0.000638    935.38336    1422.97131
  1493.0     0.000670    934.86322    1322.71765
  1383.0     0.000723    934.34338    1249.06006
  1226.0     0.000816    933.82422    1198.09253
  1299.0     0.000770    933.30554    1164.68994
  1191.0     0.000840    932.78723    1143.51855
  1191.0     0.000840    932.26959    1129.75806
  1101.0     0.000908    931.75226    1119.56885
  1103.0     0.000907    931.23560    1110.36597
  1120.0     0.000893    930.71930    1100.90356
  1148.0     0.000871    930.20367    1091.10278
  1282.0     0.000780    929.68835    1081.64111
  1273.0     0.000786    929.17377    1073.53406
  1207.0     0.000829    928.65973    1067.88953
  1253.0     0.000798    928.14594    1065.84766
  1256.0     0.000796    927.63287    1068.62671
  1327.0     0.000754    927.12012    1077.62305
  1339.0     0.000747    926.60809    1094.52979
  1385.0     0.000722    926.09637    1121.43152
  1505.0     0.000664    925.58539    1160.82288
  1488.0     0.000672    925.07489    1215.49670
  1656.0     0.000604    924.56476    1288.25830
  1742.0     0.000574    924.05536    1381.45508
  1803.0     0.000555    923.54626    1496.37305
  1875.0     0.000533    923.03784    1632.61560
  2086.0     0.000479    922.52979    1787.58252
  2108.0     0.000474    922.02246    1956.19531
  2252.0     0.000444    921.51544    2131.01685
  2363.0     0.000423    921.00916    2302.80371
  2482.0     0.000403    920.50342    2461.48828
  2623.0     0.000381    919.99799    2597.71069
  2766.0     0.000362    919.49329    2705.08862
  2759.0     0.000362    918.98895    2781.70435
  2758.0     0.000363    918.48529    2831.07227
  2810.0     0.000356    917.98199    2858.96582
  2804.0     0.000357    917.47943    2871.15723
  2751.0     0.000364    916.97723    2864.10352
  2766.0     0.000362    916.47571    2834.35229
  2598.0     0.000385    915.97473    2774.01147
  2564.0     0.000390    915.47412    2676.11084
  2475.0     0.000404    914.97424    2539.10547
  2301.0     0.000435    914.47473    2369.61084
  2314.0     0.000432    913.97595    2180.94409
  2082.0     0.000480    913.47748    1988.59558
  2065.0     0.000484    912.97980    1806.22095
  1858.0     0.000538    912.48260    1643.77783
  1771.0     0.000565    911.98578    1507.19434
  1689.0     0.000592    911.48975    1398.72253
  1619.0     0.000618    910.99396    1317.65576
  1549.0     0.000646    910.49902    1261.28491
  1518.0     0.000659    910.00439    1225.93567
  1422.0     0.000703    909.51050    1207.93018
  1399.0     0.000715    909.01697    1204.35657
  1385.0     0.000722    908.52417    1213.64478
  1416.0     0.000706    908.03192    1235.99646
  1380.0     0.000725    907.54010    1273.77686
  1410.0     0.000709    907.04895    1331.93896
  1459.0     0.000685    906.55817    1418.50476
  1561.0     0.000641    906.06818    1545.04346
  1753.0     0.000570    905.57849    1726.97925
  1988.0     0.000503    905.08960    1983.45740
  2275.0     0.000440    904.60107    2336.39526
  2724.0     0.000367    904.11328    2808.31396
  3179.0     0.0003146   903.62604    3418.63965
  3965.0     0.0002522   903.13916    4178.52637
  4651.0     0.0002150   902.65302    5084.87256
  5852.0     0.0001709   902.16730    6114.73145
  7042.0     0.0001420   901.68231    7221.04541
  8069.0     0.0001239   901.19769    8332.45508
  9648.0     0.0001036   900.71381    9356.59668
  10528.0    0.0000950   900.23053    10184.81445
  11068.0    0.0000904   899.74762    10711.91895
  11885.0    0.0000841   899.26544    10852.18750
  11034.0    0.0000906   898.78363    10566.90820
  10530.0    0.0000950   898.30261    9885.53906
  9331.0     0.0001072   897.82196    8902.66406
  7991.0     0.0001251   897.34210    7747.11230
  6468.0     0.0001546   896.86255    6545.31689
  5139.0     0.0001946   896.38379    5398.90771
  4071.0     0.0002456   895.90558    4377.28369
  3210.0     0.0003115   895.42780    3518.24829
  2602.0     0.000384    894.95074    2832.46973
  2098.0     0.000477    894.47406    2310.14600
  1711.0     0.000584    893.99817    1927.22449
  1541.0     0.000649    893.52271    1658.32373
  1386.0     0.000722    893.04791    1473.79016
  1218.0     0.000821    892.57355    1349.04126
  1158.0     0.000864    892.09998    1264.68958
  1158.0     0.000864    891.62695    1206.63354
  1076.0     0.000929    891.15430    1165.29077
  1045.0     0.000957    890.68243    1134.51404
  1084.0     0.000923    890.21094    1110.53101
  1007.0     0.000993    889.74023    1091.09766
  987.0      0.001013    889.26990    1074.88806
  992.0      0.001008    888.80035    1061.10535
  964.0      0.001037    888.33142    1049.24927
  976.0      0.001025    887.86279    1038.98462
  1015.0     0.000985    887.39502    1030.07629
  1014.0     0.000986    886.92761    1022.27155
  976.0      0.001025    886.46094    1015.59808
  999.0      0.001001    885.99469    1009.87994
  959.0      0.001043    885.52924    1005.05206
  994.0      0.001006    885.06415    1001.07971
  968.0      0.001033    884.59985    997.96521
  901.0      0.001110    884.13611    995.75806
  980.0      0.001020    883.67279    994.57758
  971.0      0.001030    883.21027    994.64478
  1028.0     0.000973    882.74811    996.33167
  992.0      0.001008    882.28674    1000.22760
  971.0      0.001030    881.82574    1007.22552
  1066.0     0.000938    881.36554    1018.62323
  1060.0     0.000943    880.90576    1036.22351
  1137.0     0.000880    880.44672    1062.41614
  1199.0     0.000834    879.98828    1100.20081
  1310.0     0.000763    879.53027    1153.10266
  1291.0     0.000775    879.07300    1224.92651
  1434.0     0.000697    878.61621    1319.29553
  1487.0     0.000672    878.16010    1438.94641
  1663.0     0.000601    877.70447    1584.80859
  1848.0     0.000541    877.24957    1755.00671
  1918.0     0.000521    876.79529    1943.41785
  2088.0     0.000479    876.34143    2141.53540
  2347.0     0.000426    875.88831    2334.45190
  2435.0     0.000411    875.43561    2506.53198
  2391.0     0.000418    874.98364    2639.10181
  2544.0     0.000393    874.53217    2715.15942
  2489.0     0.000402    874.08142    2721.94922
  2332.0     0.000429    873.63116    2654.91992
  2414.0     0.000414    873.18158    2520.82788
  2276.0     0.000439    872.73267    2339.17212
  1998.0     0.000501    872.28412    2128.00928
  1820.0     0.000549    871.83636    1911.22571
  1668.0     0.000600    871.38904    1706.07446
  1467.0     0.000682    870.94250    1527.71167
  1370.0     0.000730    870.49640    1375.35498
  1231.0     0.000812    870.05103    1254.02380
  1117.0     0.000895    869.60608    1161.83667
  1084.0     0.000923    869.16193    1094.77197
  1069.0     0.000935    868.71838    1047.89844
  992.0      0.001008    868.27527    1016.34143
  984.0      0.001016    867.83289    995.91003
  994.0      0.001006    867.39093    983.39471
  1003.0     0.000997    866.94977    976.63196
  1009.0     0.000991    866.50903    974.43024
  980.0      0.001020    866.06909    976.45624
  987.0      0.001013    865.62970    983.12946
  1052.0     0.000951    865.19080    995.54315
  1090.0     0.000917    864.75262    1015.39868
  1168.0     0.000856    864.31488    1044.90845
  1208.0     0.000828    863.87793    1086.61938
  1223.0     0.000818    863.44141    1143.09680
  1326.0     0.000754    863.00568    1216.44275
  1485.0     0.000673    862.57037    1307.65051
  1662.0     0.000602    862.13580    1415.89673
  1858.0     0.000538    861.70184    1537.91187
  2029.0     0.000493    861.26837    1667.58374
  2179.0     0.000459    860.83563    1795.94592
  2302.0     0.000434    860.40332    1911.70142
  2352.0     0.000425    859.97180    2002.31055
  2404.0     0.000416    859.54071    2055.69507
  2401.0     0.000416    859.11041    2062.76489
  2264.0     0.000442    858.68048    2020.45874
  2134.0     0.000469    858.25140    1933.73047
  1982.0     0.000505    857.82288    1805.18079
  1679.0     0.000596    857.39478    1668.56592
  1539.0     0.000650    856.96753    1528.52368
  1324.0     0.000755    856.54065    1396.30139
  1158.0     0.000864    856.11456    1279.11108
  1071.0     0.000934    855.68890    1181.27979
  1041.0     0.000961    855.26404    1103.24353
  983.0      0.001017    854.83972    1043.96777
  944.0      0.001059    854.41589    1000.78931
  895.0      0.001117    853.99280    970.46661
  877.0      0.001140    853.57019    949.79083
  940.0      0.001064    853.14838    935.99493
  920.0      0.001087    852.72693    926.88165
  884.0      0.001131    852.30627    920.85626
  876.0      0.001142    851.88611    916.83282
  879.0      0.001138    851.46667    914.11383
  892.0      0.001121    851.04785    912.27228
  872.0      0.001147    850.62946    911.09729
  874.0      0.001144    850.21185    910.63635
  841.0      0.001189    849.79468    910.78656
  862.0      0.001160    849.37830    910.83087
  895.0      0.001117    848.96228    911.21027
  849.0      0.001178    848.54712    911.91486
  862.0      0.001160    848.13239    912.94971
  842.0      0.001188    847.71838    914.30951
  829.0      0.001206    847.30505    916.50421
  878.0      0.001139    846.89209    918.58154
  882.0      0.001134    846.47992    921.04834
  890.0      0.001124    846.06824    923.93787
  884.0      0.001131    845.65729    927.29236
  891.0      0.001122    845.24677    931.16455
  914.0      0.001094    844.83704    935.62164
  900.0      0.001111    844.42792    940.78418
  925.0      0.001081    844.01923    946.69684
  969.0      0.001032    843.61127    953.55371
  984.0      0.001016    843.20380    961.58698
  932.0      0.001073    842.79712    971.14874
  913.0      0.001095    842.39087    982.78503
  918.0      0.001089    841.98535    997.35229
  939.0      0.001065    841.58032    1016.18512
  1065.0     0.000939    841.17603    1041.32874
  1110.0     0.000901    840.77234    1075.87134
  1182.0     0.000846    840.36908    1124.16077
  1218.0     0.000821    839.96661    1192.36511
  1252.0     0.000799    839.56458    1288.63464
  1497.0     0.000668    839.16333    1423.23584
  1606.0     0.000623    838.76251    1608.29565
  1842.0     0.000543    838.36243    1857.00562
  2199.0     0.000455    837.96283    2182.13159
  2630.0     0.000380    837.56403    2593.79956
  3095.0     0.0003231   837.16577    3096.61084
  3607.0     0.0002772   836.76794    3687.25195
  4088.0     0.0002446   836.37091    4351.06055
  4923.0     0.0002031   835.97430    5060.53516
  5661.0     0.0001766   835.57849    5774.26807
  6291.0     0.0001590   835.18311    6443.41162
  6986.0     0.0001431   834.78845    7008.51025
  7395.0     0.0001352   834.39447    7413.69141
  7451.0     0.0001342   834.00085    7616.60010
  7782.0     0.0001285   833.60803    7597.27197
  7456.0     0.0001341   833.21570    7358.94922
  6899.0     0.0001449   832.82410    6923.56982
  6337.0     0.0001578   832.43292    6329.15723
  5538.0     0.0001806   832.04248    5628.61719
  4661.0     0.0002145   831.65253    4882.99463
  4085.0     0.0002448   831.26331    4150.09961
  3273.0     0.0003055   830.87469    3474.66577
  2817.0     0.000355    830.48651    2884.97021
  2388.0     0.000419    830.09912    2394.02905
  2056.0     0.000486    829.71216    2002.36243
  1605.0     0.000623    829.32599    1702.01367
  1477.0     0.000677    828.94019    1479.78455
  1349.0     0.000741    828.55518    1320.40430
  1286.0     0.000778    828.17059    1208.90930
  1179.0     0.000848    827.78680    1132.18066
  1176.0     0.000850    827.40356    1079.67456
  1105.0     0.000905    827.02081    1043.52722
  1019.0     0.000981    826.63879    1018.26422
  1011.0     0.000989    826.25720    1000.32904
  1035.0     0.000966    825.87640    987.59711
  973.0      0.001028    825.49603    978.95886
  994.0      0.001006    825.11639    974.00854
  992.0      0.001008    824.73737    972.82538
  959.0      0.001043    824.35876    975.81775
  1003.0     0.000997    823.98090    983.59479
  1000.0     0.001000    823.60352    996.83069
  995.0      0.001005    823.22687    1016.10693
  1025.0     0.000976    822.85065    1040.65820
  1025.0     0.000976    822.47516    1072.42566
  1117.0     0.000895    822.10016    1109.44897
  1090.0     0.000917    821.72583    1150.05933
  1138.0     0.000879    821.35217    1191.80164
  1188.0     0.000842    820.97894    1231.59570
  1224.0     0.000817    820.60638    1266.11658
  1239.0     0.000807    820.23438    1292.36182
  1296.0     0.000772    819.86304    1308.41284
  1283.0     0.000779    819.49213    1314.15991
  1295.0     0.000772    819.12201    1311.76733
  1315.0     0.000760    818.75232    1305.66687
  1285.0     0.000778    818.38336    1301.88708
  1231.0     0.000812    818.01495    1306.81470
  1298.0     0.000770    817.64703    1325.89099
  1198.0     0.000835    817.27985    1362.65552
  1258.0     0.000795    816.91309    1418.18555
  1332.0     0.000751    816.54706    1490.85156
  1398.0     0.000715    816.18152    1576.35840
  1562.0     0.000640    815.81665    1668.08618
  1622.0     0.000617    815.45239    1757.74561
  1721.0     0.000581    815.08856    1836.34021
  1858.0     0.000538    814.72546    1895.52637
  1837.0     0.000544    814.36285    1929.35425
  1996.0     0.000501    814.00092    1935.77344
  1982.0     0.000505    813.63947    1916.73315
  1941.0     0.000515    813.27869    1876.47485
  1897.0     0.000527    812.91840    1819.30774
  1782.0     0.000561    812.55878    1748.44373
  1568.0     0.000638    812.19977    1666.29077
  1535.0     0.000651    811.84125    1575.57178
  1414.0     0.000707    811.48340    1480.20166
  1307.0     0.000765    811.12598    1385.04443
  1122.0     0.000891    810.76929    1294.79077
  1038.0     0.000963    810.41302    1212.97815
  1009.0     0.000991    810.05750    1141.67993
  941.0      0.001063    809.70245    1081.66187
  918.0      0.001089    809.34808    1032.70361
  907.0      0.001103    808.99426    993.93079
  911.0      0.001098    808.64093    964.08435
  911.0      0.001098    808.28827    941.69580
  873.0      0.001145    807.93610    925.20837
  867.0      0.001153    807.58459    913.08868
  844.0      0.001185    807.23358    903.92664
  922.0      0.001085    806.88318    896.51294
  825.0      0.001212    806.53345    889.89789
  852.0      0.001174    806.18414    883.44531
  882.0      0.001134    805.83545    876.86755
  886.0      0.001129    805.48730    870.18530
  870.0      0.001149    805.13983    863.61261
  844.0      0.001185    804.79279    857.43085
  833.0      0.001200    804.44647    851.90912
  827.0      0.001209    804.10052    847.27130
  801.0      0.001248    803.75531    843.69403
  821.0      0.001218    803.41071    841.31317
  819.0      0.001221    803.06647    840.23822
  817.0      0.001224    802.72302    840.56500
  799.0      0.001252    802.37994    842.38110
  771.0      0.001297    802.03760    845.76050
  804.0      0.001244    801.69562    850.73175
  800.0      0.001250    801.35443    853.69598
  840.0      0.001190    801.01361    861.78931
  870.0      0.001149    800.67346    871.08765
  913.0      0.001095    800.33392    881.19305
  941.0      0.001063    799.99481    888.05518
  935.0      0.001070    799.65637    898.05884
  1002.0     0.000998    799.31842    907.53546
  960.0      0.001042    798.98108    914.47449
  977.0      0.001024    798.64423    918.98816
  1045.0     0.000957    798.30804    920.78497
  985.0      0.001015    797.97241    919.75830
  1000.0     0.001000    797.63721    916.29584
  963.0      0.001038    797.30267    909.69739
  924.0      0.001082    796.96857    900.64337
  902.0      0.001109    796.63519    889.94904
  937.0      0.001067    796.30219    878.09497
  900.0      0.001111    795.96991    866.25549
  860.0      0.001163    795.63806    855.29785
  807.0      0.001239    795.30682    845.88855
  807.0      0.001239    794.97620    838.47943
  810.0      0.001235    794.64600    833.32800
  797.0      0.001255    794.31647    830.52399
  776.0      0.001289    793.98737    831.07513
  757.0      0.001321    793.65887    832.68011
  748.0      0.001337    793.33087    836.06415
  767.0      0.001304    793.00354    840.78693
  717.0      0.001395    792.67657    846.39581
  733.0      0.001364    792.35034    852.33606
  738.0      0.001355    792.02466    857.37915
  795.0      0.001258    791.69934    861.08948
  809.0      0.001236    791.37469    862.81879
  775.0      0.001290    791.05054    862.67029
  761.0      0.001314    790.72699    859.49573
  795.0      0.001258    790.40387    854.15509
  829.0      0.001206    790.08142    847.29858
  730.0      0.001370    789.75952    839.68811
  735.0      0.001361    789.43799    832.13910
  765.0      0.001307    789.11713    824.82300
  748.0      0.001337    788.79675    819.01544
  768.0      0.001302    788.47699    813.42499
  763.0      0.001311    788.15759    809.14850
  780.0      0.001282    787.83893    805.84772
  743.0      0.001346    787.52063    803.38391
  704.0      0.001420    787.20300    801.59180
  791.0      0.001264    786.88593    800.30859
  773.0      0.001294    786.56921    799.39301
  724.0      0.001381    786.25323    798.73383
  766.0      0.001305    785.93756    798.24878
  752.0      0.001330    785.62262    798.44806
  730.0      0.001370    785.30804    798.17432
  742.0      0.001348    784.99414    797.96155
  787.0      0.001271    784.68060    797.75623
  771.0      0.001297    784.36774    797.63281
  752.0      0.001330    784.05542    796.81445
  728.0      0.001374    783.74347    796.79163
  730.0      0.001370    783.43219    796.79053
  767.0      0.001304    783.12134    797.26190
  762.0      0.001312    782.81110    797.33893
  738.0      0.001355    782.50122    797.44714
  789.0      0.001267    782.19202    797.11230
  787.0      0.001271    781.88336    797.31738
  775.0      0.001290    781.57507    797.56573
  784.0      0.001276    781.26740    797.86121
  750.0      0.001333    780.96014    798.20703
  776.0      0.001289    780.65356    798.60797
  771.0      0.001297    780.34729    799.06897
  772.0      0.001295    780.04175    799.59607
  729.0      0.001372    779.73657    800.16095
  790.0      0.001266    779.43201    800.84235
  792.0      0.001263    779.12793    801.61395
  810.0      0.001235    778.82428    802.48627
  745.0      0.001342    778.52124    803.47357
  771.0      0.001297    778.21863    804.59167
  749.0      0.001335    777.91656    805.86237
  805.0      0.001242    777.61499    807.31476
  780.0      0.001282    777.31396    808.99005
  778.0      0.001285    777.01337    810.91705
  773.0      0.001294    776.71338    813.25629
  792.0      0.001263    776.41388    816.12012
  831.0      0.001203    776.11481    819.73389
  798.0      0.001253    775.81628    824.43903
  864.0      0.001157    775.51819    831.42310
  848.0      0.001179    775.22070    840.05377
  868.0      0.001152    774.92358    851.98914
  905.0      0.001105    774.62714    868.51813
  937.0      0.001067    774.33112    891.23029
  925.0      0.001081    774.03552    922.61389
  1020.0     0.000980    773.74054    963.28925
  1013.0     0.000987    773.44592    1015.68280
  1089.0     0.000918    773.15192    1081.10559
  1120.0     0.000893    772.85828    1159.95593
  1175.0     0.000851    772.56525    1251.43689
  1260.0     0.000794    772.27258    1353.23938
  1303.0     0.000767    771.98053    1461.44409
  1404.0     0.000712    771.68896    1570.60315
  1411.0     0.000709    771.39777    1674.14417
  1473.0     0.000679    771.10718    1765.17065
  1520.0     0.000658    770.81696    1837.65588
  1561.0     0.000641    770.52734    1888.22815
  1570.0     0.000637    770.23810    1916.87048
  1679.0     0.000596    769.94946    1926.84802
  1781.0     0.000561    769.66119    1923.22900
  1793.0     0.000558    769.37347    1911.65625
  1827.0     0.000547    769.08630    1898.42627
  1799.0     0.000556    768.79944    1890.16101
  1807.0     0.000553    768.51318    1893.57971
  1797.0     0.000556    768.22729    1914.31616
  1865.0     0.000536    767.94202    1955.89807
  1832.0     0.000546    767.65704    2019.06006
  1862.0     0.000537    767.37268    2101.21704
  1899.0     0.000527    767.08881    2196.22363
  2008.0     0.000498    766.80530    2294.78540
  2171.0     0.000461    766.52234    2385.72192
  2142.0     0.000467    766.23981    2457.96948
  2294.0     0.000436    765.95776    2503.18555
  2352.0     0.000425    765.67615    2518.07080
  2430.0     0.000412    765.39508    2504.75537
  2512.0     0.000398    765.11438    2468.82959
  2543.0     0.000393    764.83423    2416.77539
  2603.0     0.000384    764.55457    2354.53809
  2559.0     0.000391    764.27521    2287.13135
  2522.0     0.000397    763.99646    2218.33057
  2436.0     0.000411    763.71808    2150.74805
  2389.0     0.000419    763.44025    2085.93286
  2354.0     0.000425    763.16278    2024.57776
  2304.0     0.000434    762.88586    1966.95862
  2082.0     0.000480    762.60931    1911.70178
  2100.0     0.000476    762.33331    1855.61353
  1900.0     0.000526    762.05774    1794.37109
  1808.0     0.000553    761.78253    1723.92493
  1741.0     0.000574    761.50787    1642.08960
  1678.0     0.000596    761.23358    1549.68323
  1608.0     0.000622    760.95984    1450.48950
  1409.0     0.000710    760.68646    1349.95569
  1390.0     0.000719    760.41364    1253.54407
  1295.0     0.000772    760.14124    1165.64392
  1174.0     0.000852    759.86914    1089.16479
  1039.0     0.000962    759.59766    1025.53027
  1006.0     0.000994    759.32648    974.85132
  997.0      0.001003    759.05585    936.21582
  970.0      0.001031    758.78558    908.03839
  955.0      0.001047    758.51587    888.42798
  940.0      0.001064    758.24646    875.50842
  855.0      0.001170    757.97760    867.66864
  884.0      0.001131    757.70917    863.73163
  877.0      0.001140    757.44104    863.05823
  895.0      0.001117    757.17352    865.60657
  829.0      0.001206    756.90631    871.94232
  871.0      0.001148    756.63965    883.20038
  872.0      0.001147    756.37323    901.02753
  908.0      0.001101    756.10742    927.35992
  986.0      0.001014    755.84192    964.38470
  992.0      0.001008    755.57697    1014.16754
  1050.0     0.000952    755.31244    1078.29675
  1065.0     0.000939    755.04822    1157.43066
  1057.0     0.000946    754.78455    1250.84253
  1251.0     0.000799    754.52118    1356.08643
  1292.0     0.000774    754.25836    1468.87939
  1442.0     0.000693    753.99585    1583.24854
  1684.0     0.000594    753.73383    1691.91309
  1860.0     0.000538    753.47229    1787.16589
  1928.0     0.000519    753.21100    1862.03979
  2241.0     0.000446    752.95026    1911.90259
  2296.0     0.000436    752.68988    1935.98218
  2421.0     0.000413    752.42999    1937.63232
  2524.0     0.000396    752.17035    1922.57214
  2485.0     0.000402    751.91132    1896.13489
  2351.0     0.000425    751.65253    1861.29834
  2243.0     0.000446    751.39429    1818.22791
  2064.0     0.000484    751.13641    1765.03284
  1897.0     0.000527    750.87891    1699.31726
  1651.0     0.000606    750.62189    1620.13318
  1625.0     0.000615    750.36517    1529.42151
  1434.0     0.000697    750.10895    1431.89148
  1302.0     0.000768    749.85303    1333.53992
  1233.0     0.000811    749.59766    1240.08057
  1143.0     0.000875    749.34253    1156.09473
  1088.0     0.000919    749.08795    1084.81653
  1118.0     0.000894    748.83374    1028.23340
  1153.0     0.000867    748.57983    987.35254
  1207.0     0.000829    748.32642    962.58112
  1153.0     0.000867    748.07330    954.16351
  1274.0     0.000785    747.82068    962.58734
  1305.0     0.000766    747.56842    988.85474
  1420.0     0.000704    747.31659    1034.54858
  1372.0     0.000729    747.06512    1101.64636
  1529.0     0.000654    746.81396    1192.08240
  1665.0     0.000601    746.56335    1306.45264
  1750.0     0.000571    746.31299    1445.91138
  1849.0     0.000541    746.06311    1607.48474
  1907.0     0.000524    745.81354    1786.20801
  1960.0     0.000510    745.56439    1974.15723
  2045.0     0.000489    745.31561    2160.13037
  2027.0     0.000493    745.06726    2331.91846
  2163.0     0.000462    744.81927    2475.35815
  2232.0     0.000448    744.57166    2578.21533
  2242.0     0.000446    744.32446    2632.01343
  2148.0     0.000466    744.07751    2633.95898
  2128.0     0.000470    743.83112    2584.81006
  2251.0     0.000444    743.58496    2488.22485
  2121.0     0.000471    743.33923    2350.34668
  2063.0     0.000485    743.09387    2180.65137
  1964.0     0.000509    742.84888    1991.84924
  1872.0     0.000534    742.60431    1797.83557
  1778.0     0.000562    742.36005    1609.93799
  1589.0     0.000629    742.11621    1439.55835
  1515.0     0.000660    741.87262    1291.16833
  1337.0     0.000748    741.62952    1167.15796
  1287.0     0.000777    741.38672    1067.28381
  1202.0     0.000832    741.14435    990.04614
  1107.0     0.000903    740.90234    931.97803
  1047.0     0.000955    740.66064    889.44159
  1006.0     0.000994    740.41937    858.31940
  944.0      0.001059    740.17834    836.52374
  921.0      0.001086    739.93781    820.94275
  917.0      0.001091    739.69751    810.29865
  896.0      0.001116    739.45764    801.94324
  857.0      0.001167    739.21808    795.61560
  810.0      0.001235    738.97894    790.64008
  806.0      0.001241    738.74017    786.95612
  804.0      0.001244    738.50165    783.76996
  751.0      0.001332    738.26355    782.19672
  796.0      0.001256    738.02576    781.80432
  768.0      0.001302    737.78833    782.81885
  788.0      0.001269    737.55121    785.55286
  796.0      0.001256    737.31458    790.38086
  771.0      0.001297    737.07813    797.84198
  811.0      0.001233    736.84210    807.98376
  819.0      0.001221    736.60645    821.14130
  785.0      0.001274    736.37109    837.24713
  779.0      0.001284    736.13611    855.86920
  829.0      0.001206    735.90137    876.14197
  822.0      0.001217    735.66705    896.99182
  897.0      0.001115    735.43304    916.23944
  887.0      0.001127    735.19940    932.16156
  874.0      0.001144    734.96613    942.79028
  872.0      0.001147    734.73309    946.50116
  841.0      0.001189    734.50043    942.44733
  806.0      0.001241    734.26807    930.92102
  824.0      0.001214    734.03613    913.35388
  820.0      0.001220    733.80438    891.87939
  816.0      0.001225    733.57306    868.74573
  785.0      0.001274    733.34204    845.89746
  778.0      0.001285    733.11133    824.79126
  786.0      0.001272    732.88104    806.36096
  708.0      0.001412    732.65094    791.05817
  744.0      0.001344    732.42126    778.93945
  665.0      0.001504    732.19177    769.78052
  686.0      0.001458    731.96277    763.19855
  696.0      0.001437    731.73395    758.76123
  735.0      0.001361    731.50555    756.06696
  765.0      0.001307    731.27734    755.01556
  706.0      0.001416    731.04956    754.03778
  760.0      0.001316    730.82208    755.00378
  790.0      0.001266    730.59485    756.85834
  718.0      0.001393    730.36804    759.51428
  795.0      0.001258    730.14142    762.83881
  763.0      0.001311    729.91516    766.64545
  809.0      0.001236    729.68921    770.81622
  833.0      0.001200    729.46356    774.76874
  854.0      0.001171    729.23828    777.59039
  866.0      0.001155    729.01318    780.31268
  822.0      0.001217    728.78851    781.93463
  865.0      0.001156    728.56403    782.29492
  854.0      0.001171    728.33990    781.43195
  851.0      0.001175    728.11603    779.57880
  869.0      0.001151    727.89258    777.07269
  865.0      0.001156    727.66925    774.23773
  820.0      0.001220    727.44635    771.30566
  855.0      0.001170    727.22375    768.39117
  836.0      0.001196    727.00134    765.50623
  873.0      0.001145    726.77936    762.60083
  833.0      0.001200    726.55756    759.61823
  808.0      0.001238    726.33606    756.54700
  743.0      0.001346    726.11487    753.44092
  819.0      0.001221    725.89398    750.39868
  783.0      0.001277    725.67334    747.52618
  771.0      0.001297    725.45306    744.91351
  769.0      0.001300    725.23303    742.62177
  746.0      0.001340    725.01324    740.68311
  755.0      0.001325    724.79382    739.10083
  773.0      0.001294    724.57452    737.85455
  747.0      0.001339    724.35565    736.90662
  687.0      0.001456    724.13696    736.21014
  798.0      0.001253    723.91870    735.71710
  659.0      0.001517    723.70062    735.38312
  722.0      0.001385    723.48279    735.17114
  747.0      0.001339    723.26526    735.05273
  744.0      0.001344    723.04797    735.00848
  728.0      0.001374    722.83105    735.08630
  774.0      0.001292    722.61426    735.15778
  723.0      0.001383    722.39783    735.28015
  727.0      0.001376    722.18164    735.45258
  671.0      0.001490    721.96576    735.67755
  720.0      0.001389    721.75012    735.95837
  727.0      0.001376    721.53473    736.30115
  758.0      0.001319    721.31964    736.71381
  740.0      0.001351    721.10474    737.20624
  648.0      0.001543    720.89020    737.79413
  727.0      0.001376    720.67578    738.49896
  688.0      0.001453    720.46173    739.38544
  707.0      0.001414    720.24786    740.43353
  791.0      0.001264    720.03436    741.74091
  744.0      0.001344    719.82111    743.39771
  766.0      0.001305    719.60803    745.52783
  739.0      0.001353    719.39526    748.29297
  752.0      0.001330    719.18268    751.89862
  776.0      0.001289    718.97040    755.91113
  756.0      0.001323    718.75830    762.00623
  853.0      0.001172    718.54657    769.82721
  826.0      0.001211    718.33502    779.75818
  815.0      0.001227    718.12372    792.23914
  841.0      0.001189    717.91266    807.13245
  869.0      0.001151    717.70184    826.40839
  881.0      0.001135    717.49127    850.21637
  964.0      0.001037    717.28094    879.59674
  1007.0     0.000993    717.07086    915.80762
  1020.0     0.000980    716.86096    960.33429
  1076.0     0.000929    716.65143    1014.83978
  1143.0     0.000875    716.44208    1080.68860
  1265.0     0.000791    716.23291    1158.11011
  1389.0     0.000720    716.02405    1247.06067
  1460.0     0.000685    715.81537    1345.36902
  1538.0     0.000650    715.60693    1448.65637
  1617.0     0.000618    715.39868    1550.31604
  1700.0     0.000588    715.19080    1641.96521
  1732.0     0.000577    714.98297    1714.34705
  1837.0     0.000544    714.77551    1758.83069
  1851.0     0.000540    714.56830    1769.41724
  1801.0     0.000555    714.36115    1744.88220
  1783.0     0.000561    714.15436    1689.88953
  1684.0     0.000594    713.94769    1613.90051
  1474.0     0.000678    713.74139    1528.37939
  1479.0     0.000676    713.53516    1444.05176
  1435.0     0.000697    713.32928    1369.29272
  1317.0     0.000759    713.12360    1309.51648
  1275.0     0.000784    712.91803    1267.12988
  1236.0     0.000809    712.71277    1241.81665
  1244.0     0.000804    712.50769    1231.08252
  1208.0     0.000828    712.30286    1231.02307
  1265.0     0.000791    712.09814    1237.21289
  1172.0     0.000853    711.89374    1245.50867
  1236.0     0.000809    711.68951    1252.43433
  1225.0     0.000816    711.48553    1255.06604
  1243.0     0.000805    711.28180    1250.79382
  1215.0     0.000823    711.07813    1237.37866
  1180.0     0.000847    710.87482    1213.42676
  1149.0     0.000870    710.67157    1179.77588
  1028.0     0.000973    710.46863    1137.05518
  1043.0     0.000959    710.26587    1089.44861
  990.0      0.001010    710.06329    1041.46960
  1052.0     0.000951    709.86090    997.81976
  990.0      0.001010    709.65881    960.37390
  932.0      0.001073    709.45685    932.45209
  952.0      0.001050    709.25507    915.77197
  865.0      0.001156    709.05353    911.23499
  915.0      0.001093    708.85211    918.81482
  950.0      0.001053    708.65100    937.75677
  977.0      0.001024    708.44995    966.47876
  984.0      0.001016    708.24921    1002.65100
  995.0      0.001005    708.04865    1043.28833
  998.0      0.001002    707.84821    1084.89746
  1055.0     0.000948    707.64801    1123.70947
  1124.0     0.000890    707.44800    1156.04956
  1203.0     0.000831    707.24817    1178.86975
  1195.0     0.000837    707.04846    1190.38733
  1243.0     0.000805    706.84906    1190.51721
  1230.0     0.000813    706.64972    1180.68640
  1269.0     0.000788    706.45068    1163.04126
  1232.0     0.000812    706.25177    1139.58167
  1219.0     0.000820    706.05298    1111.69092
  1134.0     0.000882    705.85449    1080.37610
  1055.0     0.000948    705.65607    1045.64685
  1032.0     0.000969    705.45795    1008.69690
  994.0      0.001006    705.25989    970.17676
  921.0      0.001086    705.06207    931.89154
  860.0      0.001163    704.86438    895.47083
  836.0      0.001196    704.66693    862.16345
  841.0      0.001189    704.46960    832.81818
  796.0      0.001256    704.27246    807.86316
  769.0      0.001300    704.07550    787.36023
  829.0      0.001206    703.87866    771.07483
  755.0      0.001325    703.68207    758.55957
  744.0      0.001344    703.48553    749.24548
  775.0      0.001290    703.28931    742.52124
  746.0      0.001340    703.09314    737.85052
  746.0      0.001340    702.89716    734.75769
  697.0      0.001435    702.70135    732.90033
  731.0      0.001368    702.50568    732.06555
  716.0      0.001397    702.31024    732.17169
  692.0      0.001445    702.11487    733.21857
  746.0      0.001340    701.91974    735.31061
  726.0      0.001377    701.72473    738.59454
  723.0      0.001383    701.52991    743.22607
  707.0      0.001414    701.33527    749.32452
  735.0      0.001361    701.14069    756.91919
  730.0      0.001370    700.94629    765.89935
  718.0      0.001393    700.75208    775.97430
  691.0      0.001447    700.55798    786.65747
  711.0      0.001406    700.36401    797.28217
  722.0      0.001385    700.17029    807.04999
  740.0      0.001351    699.97662    815.12189
  777.0      0.001287    699.78320    820.75397
  734.0      0.001362    699.58990    823.47638
  785.0      0.001274    699.39667    823.27057
  792.0      0.001263    699.20367    820.63306
  756.0      0.001323    699.01074    816.42963
  792.0      0.001263    698.81805    811.63647
  743.0      0.001346    698.62537    807.02136
  830.0      0.001205    698.43292    803.10901
  774.0      0.001292    698.24066    800.08856
  747.0      0.001339    698.04846    797.87671
  786.0      0.001272    697.85645    796.18195
  793.0      0.001261    697.66449    794.68811
  826.0      0.001211    697.47272    793.20990
  851.0      0.001175    697.28107    791.88214
  793.0      0.001261    697.08960    791.27307
  782.0      0.001279    696.89819    792.38049
  842.0      0.001188    696.70697    796.59760
  818.0      0.001222    696.51593    806.02728
  841.0      0.001189    696.32489    821.34698
  949.0      0.001054    696.13409    844.98486
  983.0      0.001017    695.94336    878.67627
  977.0      0.001024    695.75275    923.77087
  1047.0     0.000955    695.56226    980.89063
  1086.0     0.000921    695.37195    1049.55225
  1131.0     0.000884    695.18170    1127.82275
  1188.0     0.000842    694.99170    1212.10205
  1292.0     0.000774    694.80176    1297.72888
  1334.0     0.000750    694.61188    1376.79919
  1292.0     0.000774    694.42218    1442.38855
  1325.0     0.000755    694.23254    1487.03589
  1376.0     0.000727    694.04309    1504.89807
  1405.0     0.000712    693.85370    1493.01636
  1351.0     0.000740    693.66449    1452.66016
  1234.0     0.000810    693.47540    1389.16663
  1225.0     0.000816    693.28638    1310.41895
  1205.0     0.000830    693.09747    1224.82837
  1118.0     0.000894    692.90869    1139.81775
  1129.0     0.000886    692.72003    1061.11194
  1007.0     0.000993    692.53143    992.57202
  1008.0     0.000992    692.34302    935.71942
  939.0      0.001065    692.15466    892.52673
  955.0      0.001047    691.96643    862.15265
  915.0      0.001093    691.77838    843.94153
  925.0      0.001081    691.59033    837.28967
  904.0      0.001106    691.40247    842.05762
  938.0      0.001066    691.21460    858.85187
  935.0      0.001070    691.02692    889.15546
  1022.0     0.000978    690.83929    935.28510
  1089.0     0.000918    690.65186    1000.16797
  1182.0     0.000846    690.46442    1086.93237
  1315.0     0.000760    690.27722    1198.17651
  1438.0     0.000695    690.09003    1335.83130
  1641.0     0.000609    689.90289    1499.48743
  1788.0     0.000559    689.71594    1686.26367
  2091.0     0.000478    689.52905    1890.11914
  2259.0     0.000443    689.34229    2101.62109
  2431.0     0.000411    689.15558    2308.16602
  2739.0     0.000365    688.96899    2494.66992
  2839.0     0.000352    688.78253    2646.34253
  2997.0     0.0003337   688.59607    2749.76001
  3187.0     0.0003138   688.40979    2796.15430
  3040.0     0.0003289   688.22351    2782.05151
  3028.0     0.0003303   688.03741    2708.78711
  2805.0     0.000357    687.85132    2582.05347
  2567.0     0.000390    687.66541    2412.09888
  2225.0     0.000449    687.47949    2213.27808
  2015.0     0.000496    687.29370    2001.89856
  1806.0     0.000554    687.10809    1793.35352
  1650.0     0.000606    686.92242    1600.16003
  1397.0     0.000716    686.73694    1431.30066
  1279.0     0.000782    686.55145    1292.37671
  1223.0     0.000818    686.36615    1187.39160
  1087.0     0.000920    686.18079    1114.24866
  1104.0     0.000906    685.99567    1073.02905
  1088.0     0.000919    685.81049    1061.40869
  1111.0     0.000900    685.62549    1076.00342
  1184.0     0.000845    685.44055    1113.35242
  1245.0     0.000803    685.25568    1168.47461
  1303.0     0.000767    685.07092    1235.71899
  1355.0     0.000738    684.88611    1308.37671
  1355.0     0.000738    684.70154    1379.00769
  1451.0     0.000689    684.51691    1439.60266
  1504.0     0.000665    684.33246    1481.94116
  1413.0     0.000708    684.14807    1499.83740
  1452.0     0.000689    683.96368    1490.02087
  1395.0     0.000717    683.77942    1452.66785
  1371.0     0.000729    683.59521    1391.99243
  1263.0     0.000792    683.41107    1314.95129
  1206.0     0.000829    683.22699    1229.45605
  1120.0     0.000893    683.04303    1142.82092
  1019.0     0.000981    682.85907    1060.88013
  998.0      0.001002    682.67523    987.67206
  888.0      0.001126    682.49146    925.46997
  878.0      0.001139    682.30768    874.99963
  830.0      0.001205    682.12402    835.77728
  829.0      0.001206    681.94043    806.50159
  769.0      0.001300    681.75690    785.43561
  791.0      0.001264    681.57343    770.73218
  777.0      0.001287    681.39001    760.66626
  781.0      0.001280    681.20667    753.77380
  792.0      0.001263    681.02338    748.91620
  819.0      0.001221    680.84015    745.29126
  833.0      0.001200    680.65698    742.40698
  788.0      0.001269    680.47388    740.02765
  770.0      0.001299    680.29077    738.25378
  774.0      0.001292    680.10785    736.82422
  787.0      0.001271    679.92487    735.99762
  828.0      0.001208    679.74200    735.90112
  845.0      0.001183    679.55920    736.66913
  828.0      0.001208    679.37640    738.43719
  849.0      0.001178    679.19366    741.34778
  851.0      0.001175    679.01099    745.70251
  877.0      0.001140    678.82837    751.43286
  895.0      0.001117    678.64575    758.97485
  982.0      0.001018    678.46326    768.71063
  947.0      0.001056    678.28076    781.41968
  966.0      0.001035    678.09839    797.97815
  1013.0     0.000987    677.91608    819.65820
  994.0      0.001006    677.73370    848.08356
  1069.0     0.000935    677.55145    885.17694
  1137.0     0.000880    677.36914    932.99475
  1157.0     0.000864    677.18701    993.42096
  1147.0     0.000872    677.00482    1067.73523
  1279.0     0.000782    676.82275    1156.20740
  1302.0     0.000768    676.64069    1257.47278
  1294.0     0.000773    676.45868    1368.60254
  1315.0     0.000760    676.27679    1485.00366
  1359.0     0.000736    676.09479    1600.55090
  1348.0     0.000742    675.91296    1708.29578
  1507.0     0.000664    675.73108    1801.38110
  1447.0     0.000691    675.54926    1874.38354
  1475.0     0.000678    675.36749    1924.82031
  1607.0     0.000622    675.18579    1954.10205
  1498.0     0.000668    675.00415    1966.81860
  1522.0     0.000657    674.82245    1968.61597
  1577.0     0.000634    674.64087    1963.62732
  1589.0     0.000629    674.45923    1953.01257
  1543.0     0.000648    674.27771    1934.75940
  1561.0     0.000641    674.09619    1904.51599
  1469.0     0.000681    673.91473    1857.22864
  1380.0     0.000725    673.73322    1789.33142
  1298.0     0.000770    673.55188    1700.74536
  1346.0     0.000743    673.37048    1595.49438
  1253.0     0.000798    673.18909    1480.32483
  1197.0     0.000835    673.00781    1362.92615
  1158.0     0.000864    672.82648    1250.73035
  1092.0     0.000916    672.64526    1148.65027
  1115.0     0.000897    672.46399    1060.06860
  1019.0     0.000981    672.28284    986.53937
  1024.0     0.000977    672.10162    927.90594
  993.0      0.001007    671.92053    882.81708
  990.0      0.001010    671.73944    849.08490
  966.0      0.001035    671.55829    824.18500
  928.0      0.001078    671.37726    805.68164
  969.0      0.001032    671.19617    791.54242
  935.0      0.001070    671.01520    780.29901
  887.0      0.001127    670.83417    771.03339
  901.0      0.001110    670.65320    763.25195
  944.0      0.001059    670.47229    756.73547
  950.0      0.001053    670.29132    751.47308
  981.0      0.001019    670.11047    747.36804
  958.0      0.001044    669.92957    744.51697
  1001.0     0.000999    669.74872    742.98083
  1046.0     0.000956    669.56781    742.85242
  1090.0     0.000917    669.38702    744.29901
  1056.0     0.000947    669.20618    747.62689
  1158.0     0.000864    669.02545    753.37311
  1181.0     0.000847    668.84473    762.41193
  1211.0     0.000826    668.66394    776.07971
  1251.0     0.000799    668.48322    796.33002
  1316.0     0.000760    668.30249    825.66437
  1331.0     0.000751    668.12177    866.66284
  1440.0     0.000694    667.94104    924.55737
  1451.0     0.000689    667.76044    1002.68146
  1446.0     0.000692    667.57971    1104.82336
  1530.0     0.000654    667.39911    1233.00537
  1583.0     0.000632    667.21851    1389.70093
  1654.0     0.000605    667.03784    1572.25598
  1714.0     0.000583    666.85730    1775.26855
  1687.0     0.000593    666.67664    1989.42712
  1716.0     0.000583    666.49609    2201.75586
  1832.0     0.000546    666.31549    2396.40430
  1853.0     0.000540    666.13495    2556.30347
  1778.0     0.000562    665.95441    2665.66724
  1890.0     0.000529    665.77386    2713.40283
  2002.0     0.000500    665.59332    2696.65259
  1978.0     0.000506    665.41278    2622.52588
  1988.0     0.000503    665.23230    2506.17822
  2043.0     0.000489    665.05176    2366.01538
  2056.0     0.000486    664.87128    2218.91284
  2045.0     0.000489    664.69073    2077.67627
  1987.0     0.000503    664.51031    1948.75464
  2021.0     0.000495    664.32983    1834.68530
  2032.0     0.000492    664.14929    1732.76538
  2040.0     0.000490    663.96887    1638.66394
  1827.0     0.000547    663.78833    1547.44324
  1754.0     0.000570    663.60791    1455.47827
  1654.0     0.000605    663.42743    1362.14685
  1568.0     0.000638    663.24701    1269.20361
  1504.0     0.000665    663.06647    1179.12671
  1384.0     0.000723    662.88605    1094.92712
  1295.0     0.000772    662.70563    1019.22705
  1187.0     0.000842    662.52515    953.95392
  1084.0     0.000923    662.34473    900.25055
  1027.0     0.000974    662.16425    858.46094
  1006.0     0.000994    661.98383    828.34253
  916.0      0.001092    661.80334    809.21198
  930.0      0.001075    661.62292    800.15637
  948.0      0.001055    661.44250    800.18304
  809.0      0.001236    661.26202    808.28784
  933.0      0.001072    661.08160    823.44562
  928.0      0.001078    660.90106    844.54382
  931.0      0.001074    660.72064    870.29504
  932.0      0.001073    660.54016    899.16266
  897.0      0.001115    660.35974    929.37384
  857.0      0.001167    660.17920    958.91760
  905.0      0.001105    659.99878    985.71924
  915.0      0.001093    659.81836    1007.89130
  876.0      0.001142    659.63782    1024.08667
  873.0      0.001145    659.45734    1033.78442
  917.0      0.001091    659.27679    1037.26379
  882.0      0.001134    659.09637    1035.21570
  905.0      0.001105    658.91583    1028.27014
  895.0      0.001117    658.73535    1016.76013
  910.0      0.001099    658.55475    1000.81622
  841.0      0.001189    658.37427    980.69330
  880.0      0.001136    658.19379    957.13751
  877.0      0.001140    658.01318    931.52264
  831.0      0.001203    657.83270    905.61658
  893.0      0.001120    657.65210    881.13812
  833.0      0.001200    657.47156    859.39740
  844.0      0.001185    657.29095    841.11304
  851.0      0.001175    657.11041    826.46704
  824.0      0.001214    656.92981    815.07251
  814.0      0.001229    656.74921    806.16028
  810.0      0.001235    656.56860    798.72485
  824.0      0.001214    656.38794    791.78143
  808.0      0.001238    656.20734    784.56531
  798.0      0.001253    656.02667    776.72284
  762.0      0.001312    655.84607    768.30261
  768.0      0.001302    655.66534    759.59888
  782.0      0.001279    655.48468    750.96289
  779.0      0.001284    655.30402    742.62982
  757.0      0.001321    655.12329    734.26685
  757.0      0.001321    654.94263    727.04828
  654.0      0.001529    654.76184    720.35004
  744.0      0.001344    654.58112    714.13940
  702.0      0.001425    654.40033    708.43787
  723.0      0.001383    654.21960    703.33868
  720.0      0.001389    654.03876    698.98047
  749.0      0.001335    653.85797    695.51178
  708.0      0.001412    653.67719    693.06140
  761.0      0.001314    653.49634    691.10272
  715.0      0.001399    653.31555    690.91705
  720.0      0.001389    653.13464    691.84540
  701.0      0.001427    652.95380    693.78162
  676.0      0.001479    652.77289    696.54523
  740.0      0.001351    652.59198    699.89502
  724.0      0.001381    652.41113    703.55566
  721.0      0.001387    652.23016    707.25140
  713.0      0.001403    652.04926    710.74963
  721.0      0.001387    651.86823    713.91711
  751.0      0.001332    651.68726    716.77527
  777.0      0.001287    651.50623    719.52209
  738.0      0.001355    651.32526    722.84180
  742.0      0.001348    651.14417    726.36237
  758.0      0.001319    650.96313    730.64697
  755.0      0.001325    650.78210    735.79218
  737.0      0.001357    650.60095    741.59766
  744.0      0.001344    650.41992    747.68567
  751.0      0.001332    650.23871    753.80927
  724.0      0.001381    650.05762    758.80426
  762.0      0.001312    649.87640    762.42932
  757.0      0.001321    649.69525    764.31946
  746.0      0.001340    649.51404    764.50793
  734.0      0.001362    649.33282    763.34210
  801.0      0.001248    649.15161    761.35748
  808.0      0.001238    648.97034    759.07019
  782.0      0.001279    648.78906    756.84027
  803.0      0.001245    648.60779    754.81116
  797.0      0.001255    648.42645    752.92877
  769.0      0.001300    648.24512    751.01068
  741.0      0.001350    648.06378    748.86298
  760.0      0.001316    647.88245    746.42188
  808.0      0.001238    647.70099    743.85089
  797.0      0.001255    647.51959    741.54999
  731.0      0.001368    647.33813    740.08197
  707.0      0.001414    647.15674    740.09955
  736.0      0.001359    646.97522    742.32153
  739.0      0.001353    646.79370    747.56036
  727.0      0.001376    646.61218    756.76886
  753.0      0.001328    646.43066    771.08588
  767.0      0.001304    646.24915    791.85876
  862.0      0.001160    646.06750    820.60754
  876.0      0.001142    645.88593    858.88367
  898.0      0.001114    645.70428    907.99030
  945.0      0.001058    645.52264    968.59442
  931.0      0.001074    645.34094    1039.03271
  1097.0     0.000912    645.15930    1120.05981
  1236.0     0.000809    644.97754    1206.93323
  1317.0     0.000759    644.79584    1294.56201
  1384.0     0.000723    644.61407    1376.45618
  1490.0     0.000671    644.43231    1445.29150
  1511.0     0.000662    644.25049    1493.86975
  1577.0     0.000634    644.06866    1516.41956
  1471.0     0.000680    643.88684    1509.89563
  1460.0     0.000685    643.70496    1474.64294
  1398.0     0.000715    643.52307    1414.84131
  1320.0     0.000758    643.34119    1336.53735
  1220.0     0.000820    643.15924    1247.99121
  1170.0     0.000855    642.97729    1156.37573
  1036.0     0.000965    642.79529    1067.94397
  1050.0     0.000952    642.61334    987.23370
  958.0      0.001044    642.43127    916.98956
  911.0      0.001098    642.24927    858.33350
  826.0      0.001211    642.06714    811.07935
  765.0      0.001307    641.88513    774.12689
  745.0      0.001342    641.70300    746.02271
  716.0      0.001397    641.52087    724.71918
  736.0      0.001359    641.33875    708.73633
  663.0      0.001508    641.15649    696.70270
  662.0      0.001511    640.97437    687.54297
  662.0      0.001511    640.79205    680.45886
  721.0      0.001387    640.60986    674.88391
  661.0      0.001513    640.42755    670.42834
  607.0      0.001647    640.24530    666.82721
  691.0      0.001447    640.06305    663.89545
  597.0      0.001675    639.88068    661.71759
  653.0      0.001531    639.69836    659.75287
  656.0      0.001524    639.51593    658.13092
  629.0      0.001590    639.33356    656.62250
  625.0      0.001600    639.15112    655.48889
  647.0      0.001546    638.96869    654.52435
  654.0      0.001529    638.78625    653.69421
  602.0      0.001661    638.60376    652.97357
  635.0      0.001575    638.42126    652.34460
  622.0      0.001608    638.23871    651.79443
  614.0      0.001629    638.05615    651.31372
  643.0      0.001555    637.87354    650.75751
  621.0      0.001610    637.69098    650.40155
  668.0      0.001497    637.50836    650.10114
  651.0      0.001536    637.32574    649.85370
  635.0      0.001575    637.14313    649.65771
  642.0      0.001558    636.96039    649.51221
  611.0      0.001637    636.77771    649.41748
  593.0      0.001686    636.59497    649.37396
  616.0      0.001623    636.41223    649.38330
  626.0      0.001597    636.22943    649.44781
  661.0      0.001513    636.04669    649.57074
  634.0      0.001577    635.86383    649.70020
  651.0      0.001536    635.68103    649.95563
  611.0      0.001637    635.49823    650.85968
  615.0      0.001626    635.31531    651.28705
  594.0      0.001684    635.13245    651.84039
  656.0      0.001524    634.94952    652.48853
  643.0      0.001555    634.76660    653.28693
  675.0      0.001481    634.58362    654.28168
  631.0      0.001585    634.40070    655.54626
  651.0      0.001536    634.21777    657.17633
  632.0      0.001582    634.03467    659.38330
  622.0      0.001608    633.85168    662.41412
  653.0      0.001531    633.66864    666.65497
  663.0      0.001508    633.48560    672.64832
  668.0      0.001497    633.30243    681.12134
  684.0      0.001462    633.11938    693.00330
  729.0      0.001372    632.93622    709.41235
  734.0      0.001362    632.75311    731.60437
  750.0      0.001333    632.57001    760.87085
  771.0      0.001297    632.38678    798.38300
  788.0      0.001269    632.20361    844.98907
  882.0      0.001134    632.02039    900.98511
  896.0      0.001116    631.83716    965.88483
  986.0      0.001014    631.65387    1038.23669
  1106.0     0.000904    631.47064    1115.52954
  1166.0     0.000858    631.28735    1194.19983
  1239.0     0.000807    631.10406    1269.89978
  1361.0     0.000735    630.92078    1337.72192
  1327.0     0.000754    630.73743    1392.96143
  1414.0     0.000707    630.55408    1431.97192
  1361.0     0.000735    630.37067    1452.84814
  1414.0     0.000707    630.18732    1455.43457
  1385.0     0.000722    630.00391    1440.64844
  1430.0     0.000699    629.82056    1409.73376
  1356.0     0.000737    629.63715    1364.06885
  1217.0     0.000822    629.45367    1305.56067
  1179.0     0.000848    629.27020    1237.05469
  1036.0     0.000965    629.08673    1162.55005
  1049.0     0.000953    628.90326    1086.50439
  966.0      0.001035    628.71973    1012.49561
  876.0      0.001142    628.53625    943.76080
  848.0      0.001179    628.35266    882.44934
  764.0      0.001309    628.16919    829.69958
  758.0      0.001319    627.98566    785.82050
  743.0      0.001346    627.80206    750.46619
  717.0      0.001395    627.61847    722.82404
  668.0      0.001497    627.43488    701.76398
  659.0      0.001517    627.25128    686.16461
  656.0      0.001524    627.06763    674.81726
  663.0      0.001508    626.88403    666.67712
  633.0      0.001580    626.70032    660.92749
  681.0      0.001468    626.51672    657.09705
  670.0      0.001493    626.33307    654.09955
  665.0      0.001504    626.14935    651.88776
  646.0      0.001548    625.96570    650.21722
  661.0      0.001513    625.78198    648.92719
  635.0      0.001575    625.59833    647.89642
  611.0      0.001637    625.41455    647.10345
  658.0      0.001520    625.23090    646.58887
  641.0      0.001560    625.04718    646.14520
  623.0      0.001605    624.86340    645.86432
  689.0      0.001451    624.67969    645.75891
  696.0      0.001437    624.49591    645.85858
  686.0      0.001458    624.31213    646.21735
  641.0      0.001560    624.12836    646.92212
  700.0      0.001429    623.94458    648.10400
  686.0      0.001458    623.76074    649.95166
  713.0      0.001403    623.57703    652.39270
  745.0      0.001342    623.39325    656.42554
  721.0      0.001387    623.20941    662.11987
  708.0      0.001412    623.02563    669.66632
  761.0      0.001314    622.84174    680.08557
  738.0      0.001355    622.65796    693.54413
  715.0      0.001399    622.47412    710.37097
  776.0      0.001289    622.29028    730.70428
  734.0      0.001362    622.10645    754.41681
  785.0      0.001274    621.92261    781.06134
  749.0      0.001335    621.73883    809.85901
  843.0      0.001186    621.55493    839.73364
  856.0      0.001168    621.37109    869.40723
  811.0      0.001233    621.18726    897.52057
  837.0      0.001195    621.00342    922.86029
  902.0      0.001109    620.81952    944.68103
  1010.0     0.000990    620.63568    962.84003
  917.0      0.001091    620.45190    977.88043
  946.0      0.001057    620.26794    990.62579
  973.0      0.001028    620.08417    1001.64801
  995.0      0.001005    619.90027    1010.88165
  992.0      0.001008    619.71643    1017.48798
  928.0      0.001078    619.53253    1019.76904
  938.0      0.001066    619.34869    1015.99750
  928.0      0.001078    619.16486    1004.62988
  936.0      0.001068    618.98102    985.04156
  869.0      0.001151    618.79718    957.92572
  843.0      0.001186    618.61334    925.18579
  878.0      0.001139    618.42950    889.40277
  829.0      0.001206    618.24561    853.25128
  852.0      0.001174    618.06183    819.13220
  831.0      0.001203    617.87799    789.03351
  847.0      0.001181    617.69415    764.52808
  833.0      0.001200    617.51031    746.84387
  920.0      0.001087    617.32654    736.98077
  879.0      0.001138    617.14276    735.84332
  898.0      0.001114    616.95892    744.35443
  944.0      0.001059    616.77515    763.50531
  972.0      0.001029    616.59137    794.30603
  997.0      0.001003    616.40759    837.61737
  1002.0     0.000998    616.22382    893.87152
  1010.0     0.000990    616.04010    962.71863
  1108.0     0.000903    615.85632    1042.65735
  1027.0     0.000974    615.67255    1130.73206
  1138.0     0.000879    615.48889    1222.38220
  1056.0     0.000947    615.30511    1311.52783
  1200.0     0.000833    615.12146    1390.93896
  1174.0     0.000852    614.93768    1452.90845
  1130.0     0.000885    614.75403    1490.31885
  1118.0     0.000894    614.57031    1498.11426
  1175.0     0.000851    614.38672    1474.78894
  1136.0     0.000880    614.20306    1423.07275
  1123.0     0.000890    614.01941    1349.21655
  1174.0     0.000852    613.83582    1261.25793
  1153.0     0.000867    613.65216    1167.26404
  1110.0     0.000901    613.46863    1074.19580
  1037.0     0.000964    613.28497    987.38879
  963.0      0.001038    613.10150    910.41809
  924.0      0.001082    612.91791    845.18250
  855.0      0.001170    612.73438    792.14142
  894.0      0.001119    612.55090    750.65344
  812.0      0.001232    612.36737    719.35944
  802.0      0.001247    612.18396    696.54956
  807.0      0.001239    612.00043    680.48615
  761.0      0.001314    611.81702    669.53088
  729.0      0.001372    611.63361    662.39862
  725.0      0.001379    611.45020    658.12268
  720.0      0.001389    611.26691    656.07886
  757.0      0.001321    611.08350    655.96173
  805.0      0.001242    610.90021    657.75000
  766.0      0.001305    610.71686    661.66980
  729.0      0.001372    610.53357    668.15405
  769.0      0.001300    610.35028    677.96356
  785.0      0.001274    610.16705    691.43274
  819.0      0.001221    609.98383    709.03503
  798.0      0.001253    609.80066    732.02631
  848.0      0.001179    609.61755    760.28955
  856.0      0.001168    609.43433    793.64752
  830.0      0.001205    609.25128    831.37073
  907.0      0.001103    609.06812    872.10681
  938.0      0.001066    608.88513    913.61829
  983.0      0.001017    608.70203    954.05420
  1034.0     0.000967    608.51904    990.46252
  1165.0     0.000858    608.33606    1020.67603
  1159.0     0.000863    608.15314    1042.49316
  1192.0     0.000839    607.97028    1055.57764
  1230.0     0.000813    607.78735    1061.33398
  1216.0     0.000822    607.60449    1062.69153
  1345.0     0.000743    607.42163    1063.47156
  1278.0     0.000782    607.23889    1067.42273
  1377.0     0.000726    607.05609    1077.38977
  1469.0     0.000681    606.87341    1094.77771
  1436.0     0.000696    606.69073    1119.30798
  1387.0     0.000721    606.50806    1149.01392
  1421.0     0.000704    606.32544    1180.54749
  1317.0     0.000759    606.14282    1209.30115
  1305.0     0.000766    605.96033    1230.58301
  1290.0     0.000775    605.77777    1240.22290
  1241.0     0.000806    605.59534    1235.66467
  1177.0     0.000850    605.41284    1216.61353
  1173.0     0.000853    605.23047    1184.90808
  1066.0     0.000938    605.04816    1143.66956
  1001.0     0.000999    604.86578    1096.27441
  976.0      0.001025    604.68353    1045.67542
  927.0      0.001079    604.50122    994.17316
  859.0      0.001164    604.31909    943.50983
  841.0      0.001189    604.13690    895.06750
  775.0      0.001290    603.95477    849.99591
  798.0      0.001253    603.77271    809.19226
  772.0      0.001295    603.59070    773.22375
  803.0      0.001245    603.40875    742.30591
  784.0      0.001276    603.22675    716.36060
  753.0      0.001328    603.04492    695.10876
  728.0      0.001374    602.86298    678.15070
  740.0      0.001351    602.68121    665.03119
  689.0      0.001451    602.49945    655.28296
  730.0      0.001370    602.31775    648.46918
  728.0      0.001374    602.13611    644.20197
  682.0      0.001466    601.95447    642.18555
  693.0      0.001443    601.77295    642.22028
  726.0      0.001377    601.59137    644.31659
  659.0      0.001517    601.40997    648.24451
  680.0      0.001471    601.22852    654.17310
  692.0      0.001445    601.04718    662.20947
  689.0      0.001451    600.86584    672.38538
  734.0      0.001362    600.68463    684.71014
  689.0      0.001451    600.50348    699.03979
  718.0      0.001393    600.32227    715.04089
  715.0      0.001399    600.14124    731.99969
  660.0      0.001515    599.96014    749.49231
  724.0      0.001381    599.77924    766.13672
  672.0      0.001488    599.59827    780.75201
  753.0      0.001328    599.41742    791.96173
  777.0      0.001287    599.23657    798.44055
  725.0      0.001379    599.05585    799.17340
  767.0      0.001304    598.87518    793.75507
  760.0      0.001316    598.69452    782.58167
  713.0      0.001403    598.51404    766.56952
  678.0      0.001475    598.33350    747.72290
  685.0      0.001460    598.15308    727.45654
  682.0      0.001466    597.97266    707.22034
  728.0      0.001374    597.79236    688.15369
  649.0      0.001541    597.61212    671.04663
  627.0      0.001595    597.43195    656.34937
  629.0      0.001590    597.25183    644.21295
  626.0      0.001597    597.07172    634.54999
  627.0      0.001595    596.89178    627.10858
  632.0      0.001582    596.71179    621.54572
  634.0      0.001577    596.53198    617.49152
  586.0      0.001706    596.35217    614.59473
  600.0      0.001667    596.17249    612.55194
  611.0      0.001637    595.99286    611.11951
  600.0      0.001667    595.81323    610.11432
  599.0      0.001669    595.63379    609.40588
  602.0      0.001661    595.45428    608.90607
  563.0      0.001776    595.27496    608.55988
  580.0      0.001724    595.09564    608.33496
  639.0      0.001565    594.91650    608.21741
  616.0      0.001623    594.73730    608.20569
  603.0      0.001658    594.55829    608.31012
  600.0      0.001667    594.37933    608.55188
  639.0      0.001565    594.20038    608.96497
  684.0      0.001462    594.02155    609.02313
  622.0      0.001608    593.84277    609.95020
  603.0      0.001658    593.66412    611.21814
  628.0      0.001592    593.48547    612.97870
  661.0      0.001513    593.30701    615.33936
  638.0      0.001567    593.12860    618.41626
  621.0      0.001610    592.95020    625.44861
  663.0      0.001508    592.77197    630.53900
  637.0      0.001570    592.59375    636.90265
  683.0      0.001464    592.41565    644.76160
  697.0      0.001435    592.23761    654.35211
  643.0      0.001555    592.05969    665.91382
  702.0      0.001425    591.88177    679.66815
  668.0      0.001497    591.70404    695.78845
  750.0      0.001333    591.52643    714.42493
  758.0      0.001319    591.34875    735.45325
  759.0      0.001318    591.17133    758.77368
  732.0      0.001366    590.99384    784.04028
  767.0      0.001304    590.81659    810.66388
  846.0      0.001182    590.63928    837.80676
  888.0      0.001126    590.46216    864.41418
  927.0      0.001079    590.28510    889.41443
  909.0      0.001100    590.10815    911.93048
  947.0      0.001056    589.93134    931.60175
  1007.0     0.000993    589.75452    948.87500
  988.0      0.001012    589.57788    965.03778
  1013.0     0.000987    589.40125    981.86810
  1023.0     0.000978    589.22479    1001.00574
  1055.0     0.000948    589.04840    1023.34528
  1021.0     0.000979    588.87213    1048.66333
  1064.0     0.000940    588.69598    1075.51270
  1049.0     0.000953    588.51984    1101.34448
  957.0      0.001045    588.34387    1122.84314
  1008.0     0.000992    588.16797    1136.48950
  1035.0     0.000966    587.99219    1139.33447
  1014.0     0.000986    587.81647    1129.61450
  967.0      0.001034    587.64093    1108.12549
  948.0      0.001055    587.46539    1076.76257
  898.0      0.001114    587.29004    1038.89417
  938.0      0.001066    587.11481    998.00342
  912.0      0.001096    586.93958    957.17596
  899.0      0.001112    586.76453    918.65997
  903.0      0.001107    586.58954    883.72894
  810.0      0.001235    586.41473    852.73352
  812.0      0.001232    586.23999    825.29492
  814.0      0.001229    586.06537    800.61761
  780.0      0.001282    585.89081    777.85901
  715.0      0.001399    585.71643    756.37799
  791.0      0.001264    585.54218    735.74628
  752.0      0.001330    585.36798    716.63721
  695.0      0.001439    585.19391    698.96680
  716.0      0.001397    585.01990    683.02014
  718.0      0.001393    584.84607    669.06085
  668.0      0.001497    584.67236    657.29926
  693.0      0.001443    584.49872    647.87848
  642.0      0.001558    584.32526    640.88092
  632.0      0.001582    584.15186    636.25262
  647.0      0.001546    583.97864    634.21423
  672.0      0.001488    583.80548    634.71466
  653.0      0.001531    583.63245    637.83325
  691.0      0.001447    583.45953    643.67792
  678.0      0.001475    583.28680    652.36023
  664.0      0.001506    583.11407    663.94611
  677.0      0.001477    582.94159    678.39539
  692.0      0.001445    582.76917    695.49585
  723.0      0.001383    582.59686    714.80933
  759.0      0.001318    582.42474    735.63977
  702.0      0.001425    582.25269    757.03766
  739.0      0.001353    582.08081    777.84906
  770.0      0.001299    581.90894    796.81317
  737.0      0.001357    581.73730    812.71686
  758.0      0.001319    581.56573    824.60400
  777.0      0.001287    581.39441    832.00415
  797.0      0.001255    581.22314    835.03815
  795.0      0.001258    581.05200    834.52063
  808.0      0.001238    580.88098    830.89722
  741.0      0.001350    580.71008    825.14435
  776.0      0.001289    580.53937    817.79059
  791.0      0.001264    580.36877    809.06122
  776.0      0.001289    580.19830    798.88501
  766.0      0.001305    580.02802    787.10199
  711.0      0.001406    579.85779    773.62354
  726.0      0.001377    579.68774    758.65900
  715.0      0.001399    579.51776    742.73462
  654.0      0.001529    579.34802    726.57843
  682.0      0.001466    579.17834    710.81934
  718.0      0.001393    579.00885    696.36804
  697.0      0.001435    578.83948    683.59723
  634.0      0.001577    578.67029    672.83862
  653.0      0.001531    578.50122    664.26129
  603.0      0.001658    578.33221    657.88922
  629.0      0.001590    578.16345    653.63348
  647.0      0.001546    577.99481    651.32898
  643.0      0.001555    577.82629    650.77850
  703.0      0.001422    577.65790    651.79498
  660.0      0.001515    577.48975    654.24084
  666.0      0.001502    577.32166    658.06744
  646.0      0.001548    577.15375    663.35913
  691.0      0.001447    576.98602    670.39081
  706.0      0.001416    576.81836    679.70905
  702.0      0.001425    576.65094    692.24908
  705.0      0.001418    576.48358    709.48956
  830.0      0.001205    576.31647    733.64685
  834.0      0.001199    576.14941    767.88751
  950.0      0.001053    575.98260    816.52197
  1003.0     0.000997    575.81592    885.12189
  1165.0     0.000858    575.64935    980.47040
  1259.0     0.000794    575.48297    1110.25964
  1567.0     0.000638    575.31671    1282.44958
  1805.0     0.000554    575.15070    1504.24817
  2273.0     0.000440    574.98474    1780.78528
  2591.0     0.000386    574.81903    2113.34814
  3154.0     0.0003171   574.65338    2498.01514
  3639.0     0.0002748   574.48798    2924.12720
  4078.0     0.0002452   574.32269    3373.52393
  4691.0     0.0002132   574.15759    3820.61938
  4952.0     0.0002019   573.99268    4233.62451
  5021.0     0.0001992   573.82782    4577.29639
  5168.0     0.0001935   573.66327    4816.55469
  5191.0     0.0001926   573.49878    4923.53125
  5008.0     0.0001997   573.33453    4883.81201
  4847.0     0.0002063   573.17035    4701.97119
  4374.0     0.0002286   573.00641    4400.41797
  3781.0     0.0002645   572.84271    4013.37866
  3217.0     0.0003108   572.67902    3578.29590
  2613.0     0.000383    572.51563    3130.06860
  2198.0     0.000455    572.35236    2696.18872
  1857.0     0.000539    572.18927    2297.39355
  1562.0     0.000640    572.02631    1946.56433
  1320.0     0.000758    571.86359    1649.63318
  1150.0     0.000870    571.70099    1406.92407
  991.0      0.001009    571.53857    1215.04834
  923.0      0.001083    571.37640    1066.77478
  858.0      0.001166    571.21429    954.94562
  876.0      0.001142    571.05243    871.95776
  803.0      0.001245    570.89069    810.94232
  743.0      0.001346    570.72925    765.99017
  749.0      0.001335    570.56787    733.09009
  732.0      0.001366    570.40668    708.37280
  687.0      0.001456    570.24579    689.55426
  666.0      0.001502    570.08490    675.08862
  625.0      0.001600    569.92432    663.47125
  657.0      0.001522    569.76392    654.05524
  588.0      0.001701    569.60364    646.28241
  593.0      0.001686    569.44354    639.76227
  635.0      0.001575    569.28375    634.21515
  624.0      0.001603    569.12396    629.43683
  569.0      0.001757    568.96454    625.01849
  607.0      0.001647    568.80524    621.36426
  606.0      0.001650    568.64606    618.03870
  603.0      0.001658    568.48718    615.14825
  588.0      0.001701    568.32837    612.55249
  561.0      0.001783    568.16986    610.21088
  609.0      0.001642    568.01147    608.09058
  631.0      0.001585    567.85333    606.16602
  570.0      0.001754    567.69537    604.41614
  560.0      0.001786    567.53754    602.82385
  545.0      0.001835    567.38000    601.37573
  573.0      0.001745    567.22260    599.97852
  575.0      0.001739    567.06537    598.78870
  608.0      0.001645    566.90839    597.71552
  583.0      0.001715    566.75159    596.75446
  560.0      0.001786    566.59497    595.90253
  578.0      0.001730    566.43860    595.16028
  561.0      0.001783    566.28241    594.53174
  579.0      0.001727    566.12634    594.02740
  571.0      0.001751    565.97058    593.66779
  523.0      0.001912    565.81494    593.48682
  537.0      0.001862    565.65961    593.54181
  519.0      0.001927    565.50439    593.92126
  561.0      0.001783    565.34943    594.75781
  599.0      0.001669    565.19458    596.24146
  590.0      0.001695    565.04004    598.63312
  652.0      0.001534    564.88574    602.27094
  626.0      0.001597    564.73151    607.57086
  630.0      0.001587    564.57758    615.00916
  658.0      0.001520    564.42383    625.08527
  638.0      0.001567    564.27032    638.26306
  651.0      0.001536    564.11700    654.88678
  723.0      0.001383    563.96387    675.08472
  707.0      0.001414    563.81104    698.66779
  761.0      0.001314    563.65833    725.03760
  781.0      0.001280    563.50586    753.14240
  798.0      0.001253    563.35358    781.44885
  820.0      0.001220    563.20160    807.90790
  814.0      0.001229    563.04974    830.53485
  863.0      0.001159    562.89813    846.98230
  898.0      0.001114    562.74670    855.32971
  834.0      0.001199    562.59558    854.48572
  862.0      0.001160    562.44464    844.43646
  813.0      0.001230    562.29388    826.37000
  815.0      0.001227    562.14343    802.52820
  781.0      0.001280    561.99310    774.89319
  668.0      0.001497    561.84302    745.86639
  672.0      0.001488    561.69318    717.52167
  667.0      0.001499    561.54358    691.24524
  612.0      0.001634    561.39417    668.00922
  597.0      0.001675    561.24500    648.39996
  648.0      0.001543    561.09607    632.42645
  595.0      0.001681    560.94733    620.13666
  638.0      0.001567    560.79889    610.69611
  621.0      0.001610    560.65057    604.16833
  600.0      0.001667    560.50256    599.42773
  615.0      0.001626    560.35474    596.31586
  600.0      0.001667    560.20721    594.44476
  609.0      0.001642    560.05988    593.51904
  599.0      0.001669    559.91272    593.33783
  571.0      0.001751    559.76587    593.78815
  601.0      0.001664    559.61920    594.83362
  660.0      0.001515    559.47284    596.50562
  640.0      0.001563    559.32660    598.89478
  637.0      0.001570    559.18073    602.14233
  648.0      0.001543    559.03497    606.43634
  622.0      0.001608    558.88953    612.00647
  655.0      0.001527    558.74432    619.12238
  689.0      0.001451    558.59930    628.09387
  687.0      0.001456    558.45459    639.27551
  672.0      0.001488    558.31006    653.07233
  719.0      0.001391    558.16577    669.94952
  702.0      0.001425    558.02173    690.43884
  782.0      0.001279    557.87799    715.14276
  820.0      0.001220    557.73438    744.73212
  836.0      0.001196    557.59113    779.93695
  896.0      0.001116    557.44806    821.53107
  926.0      0.001080    557.30524    870.29456
  991.0      0.001009    557.16272    926.99384
  1066.0     0.000938    557.02032    991.88153
  1075.0     0.000930    556.87830    1064.94421
  1111.0     0.000900    556.73645    1145.37988
  1152.0     0.000868    556.59491    1231.60425
  1196.0     0.000836    556.45355    1321.31592
  1204.0     0.000831    556.31244    1411.71167
  1401.0     0.000714    556.17169    1496.75513
  1455.0     0.000687    556.03107    1579.71619
  1513.0     0.000661    555.89075    1654.68677
  1513.0     0.000661    555.75067    1719.15552
  1591.0     0.000629    555.61084    1771.05737
  1618.0     0.000618    555.47125    1808.89636
  1725.0     0.000580    555.33197    1832.05298
  1693.0     0.000591    555.19293    1840.81152
  1817.0     0.000550    555.05414    1836.31787
  1745.0     0.000573    554.91559    1820.16614
  1770.0     0.000565    554.77728    1794.06677
  1632.0     0.000613    554.63928    1759.13281
  1576.0     0.000635    554.50146    1716.22278
  1545.0     0.000647    554.36401    1667.02173
  1484.0     0.000674    554.22668    1612.00024
  1462.0     0.000684    554.08972    1553.88672
  1394.0     0.000717    553.95306    1494.59998
  1451.0     0.000689    553.81653    1435.24353
  1349.0     0.000741    553.68036    1375.94604
  1269.0     0.000788    553.54437    1316.16016
  1269.0     0.000788    553.40875    1255.16711
  1171.0     0.000854    553.27332    1192.51868
  1198.0     0.000835    553.13818    1128.29602
  1056.0     0.000947    553.00336    1063.21375
  1007.0     0.000993    552.86871    998.56427
  927.0      0.001079    552.73438    935.98224
  863.0      0.001159    552.60028    877.11487
  822.0      0.001217    552.46649    823.32172
  820.0      0.001220    552.33295    776.00275
  777.0      0.001287    552.19971    734.76166
  774.0      0.001292    552.06671    700.10620
  679.0      0.001473    551.93396    671.74426
  639.0      0.001565    551.80157    649.11108
  605.0      0.001653    551.66937    631.46857
  637.0      0.001570    551.53748    617.99866
  623.0      0.001605    551.40582    607.88818
  610.0      0.001639    551.27448    600.39081
  554.0      0.001805    551.14337    594.86414
  607.0      0.001647    551.01263    590.78656
  602.0      0.001661    550.88202    587.75409
  558.0      0.001792    550.75183    585.46936
  579.0      0.001727    550.62189    583.72015
  622.0      0.001608    550.49219    582.36194
  561.0      0.001783    550.36279    581.29926
  567.0      0.001764    550.23364    580.47083
  574.0      0.001742    550.10480    579.83875
  559.0      0.001789    549.97620    579.38129
  566.0      0.001767    549.84790    579.08826
  558.0      0.001792    549.71997    578.95807
  552.0      0.001812    549.59222    578.99872
  576.0      0.001736    549.46478    579.22858
  602.0      0.001661    549.33759    579.68146
  596.0      0.001678    549.21075    580.41272
  571.0      0.001751    549.08417    581.50720
  602.0      0.001661    548.95789    583.09393
  612.0      0.001634    548.83185    585.35803
  616.0      0.001623    548.70618    588.55731
  615.0      0.001626    548.58075    593.03632
  615.0      0.001626    548.45557    599.23492
  649.0      0.001541    548.33075    607.68970
  686.0      0.001458    548.20618    619.02142
  670.0      0.001493    548.08191    633.90790
  693.0      0.001443    547.95789    653.03870
  736.0      0.001359    547.83423    677.06567
  673.0      0.001486    547.71082    706.54016
  710.0      0.001408    547.58771    741.85535
  758.0      0.001319    547.46490    783.19971
  854.0      0.001171    547.34241    830.51831
  884.0      0.001131    547.22021    883.49194
  903.0      0.001107    547.09827    941.33179
  1003.0     0.000997    546.97662    1003.61615
  1029.0     0.000972    546.85529    1069.08740
  1070.0     0.000935    546.73425    1136.69299
  1084.0     0.000923    546.61353    1205.42847
  1214.0     0.000824    546.49310    1274.30762
  1218.0     0.000821    546.37299    1342.04504
  1250.0     0.000800    546.25311    1406.58899
  1283.0     0.000779    546.13361    1464.79358
  1392.0     0.000718    546.01428    1512.44397
  1389.0     0.000720    545.89539    1544.71130
  1391.0     0.000719    545.77673    1556.96582
  1316.0     0.000760    545.65845    1545.81812
  1376.0     0.000727    545.54041    1510.10400
  1326.0     0.000754    545.42267    1451.45337
  1249.0     0.000801    545.30524    1374.11499
  1166.0     0.000858    545.18811    1284.06592
  1119.0     0.000894    545.07129    1187.81531
  1020.0     0.000980    544.95477    1091.40393
  1017.0     0.000983    544.83862    999.80890
  1002.0     0.000998    544.72266    916.70294
  918.0      0.001089    544.60712    844.43329
  847.0      0.001181    544.49182    784.13074
  806.0      0.001241    544.37683    735.91504
  760.0      0.001316    544.26221    699.14948
  755.0      0.001325    544.14783    672.71033
  746.0      0.001340    544.03381    655.22943
  686.0      0.001458    543.92004    645.28046
  729.0      0.001372    543.80664    641.49573
  681.0      0.001468    543.69360    642.61603
  666.0      0.001502    543.58075    647.50104
  689.0      0.001451    543.46832    655.05328
  696.0      0.001437    543.35608    664.31683
  684.0      0.001462    543.24426    674.13885
  686.0      0.001458    543.13269    683.67670
  620.0      0.001613    543.02148    691.77094
  608.0      0.001645    542.91052    697.82739
  672.0      0.001488    542.79999    701.34717
  696.0      0.001437    542.68970    702.34094
  703.0      0.001422    542.57971    701.36298
  678.0      0.001475    542.47009    699.46155
  665.0      0.001504    542.36072    698.03284
  650.0      0.001538    542.25177    698.80066
  663.0      0.001508    542.14307    703.05402
  684.0      0.001462    542.03467    713.00354
  660.0      0.001515    541.92664    729.97260
  746.0      0.001340    541.81891    755.55695
  708.0      0.001412    541.71149    791.09052
  728.0      0.001374    541.60443    837.40094
  802.0      0.001247    541.49762    894.55005
  776.0      0.001289    541.39117    961.81769
  803.0      0.001245    541.28510    1037.83984
  872.0      0.001147    541.17926    1119.42773
  997.0      0.001003    541.07379    1202.37524
  1033.0     0.000968    540.96869    1281.74890
  1178.0     0.000849    540.86383    1350.83765
  1237.0     0.000808    540.75934    1403.60388
  1388.0     0.000720    540.65515    1435.94006
  1518.0     0.000659    540.55133    1445.10388
  1693.0     0.000591    540.44775    1431.43604
  1805.0     0.000554    540.34460    1398.38196
  1960.0     0.000510    540.24170    1352.99438
  2065.0     0.000484    540.13916    1302.86169
  2159.0     0.000463    540.03699    1254.99292
  2277.0     0.000439    539.93506    1215.47217
  2085.0     0.000480    539.83350    1187.94678
  2037.0     0.000491    539.73230    1173.82581
  1942.0     0.000515    539.63141    1172.73572
  1824.0     0.000548    539.53082    1181.68909
  1735.0     0.000576    539.43060    1196.14185
  1674.0     0.000597    539.33069    1210.43359
  1524.0     0.000656    539.23114    1218.61365
  1341.0     0.000746    539.13190    1215.46472
  1219.0     0.000820    539.03296    1197.57776
  1063.0     0.000941    538.93439    1164.10095
  968.0      0.001033    538.83612    1116.75647
  842.0      0.001188    538.73828    1059.09204
  794.0      0.001259    538.64069    995.43530
  761.0      0.001314    538.54346    930.02869
  683.0      0.001464    538.44653    866.51971
  643.0      0.001555    538.34998    807.71790
  644.0      0.001553    538.25372    755.51385
  641.0      0.001560    538.15784    710.90680
  607.0      0.001647    538.06232    674.11279
  663.0      0.001508    537.96704    644.73633
  612.0      0.001634    537.87219    621.96613
  591.0      0.001692    537.77765    604.76978
  594.0      0.001684    537.68341    592.05920
  587.0      0.001704    537.58960    582.81067
  597.0      0.001675    537.49603    576.14282
  609.0      0.001642    537.40283    571.32391
  552.0      0.001812    537.31000    567.87787
  544.0      0.001838    537.21747    565.26947
  540.0      0.001852    537.12531    563.28735
  569.0      0.001757    537.03345    561.74750
  529.0      0.001890    536.94196    560.53345
  573.0      0.001745    536.85083    559.57739
  550.0      0.001818    536.76001    558.84363
  548.0      0.001825    536.66956    558.32037
  584.0      0.001712    536.57947    558.06628
  576.0      0.001736    536.48962    557.98969
  571.0      0.001751    536.40021    558.16718
  589.0      0.001698    536.31110    558.62604
  573.0      0.001745    536.22235    559.39178
  579.0      0.001727    536.13397    560.48248
  589.0      0.001698    536.04590    561.90228
  568.0      0.001761    535.95819    563.63434
  592.0      0.001689    535.87085    565.63495
  575.0      0.001739    535.78381    567.87207
  577.0      0.001733    535.69708    570.14624
  585.0      0.001709    535.61078    572.35406
  578.0      0.001730    535.52478    574.32111
  564.0      0.001773    535.43915    575.86157
  574.0      0.001742    535.35388    576.80304
  587.0      0.001704    535.26892    577.02252
  544.0      0.001838    535.18433    576.47943
  542.0      0.001845    535.10010    575.03436
  561.0      0.001783    535.01617    573.23492
  594.0      0.001684    534.93262    571.06049
  548.0      0.001825    534.84943    568.73663
  548.0      0.001825    534.76654    566.99359
  516.0      0.001938    534.68408    564.87903
  549.0      0.001821    534.60193    563.05872
  559.0      0.001789    534.52008    561.49902
  538.0      0.001859    534.43866    560.46960
  531.0      0.001883    534.35754    559.70801
  543.0      0.001842    534.27679    559.36945
  560.0      0.001786    534.19635    559.89630
  529.0      0.001890    534.11633    561.04346
  595.0      0.001681    534.03662    562.92334
  549.0      0.001821    533.95728    565.70142
  617.0      0.001621    533.87830    569.60284
  596.0      0.001678    533.79962    574.91052
  635.0      0.001575    533.72137    581.95477
  603.0      0.001658    533.64337    591.09119
  587.0      0.001704    533.56580    602.66382
  558.0      0.001792    533.48859    616.96118
  629.0      0.001590    533.41168    634.23340
  649.0      0.001541    533.33521    654.35699
  695.0      0.001439    533.25897    677.21063
  681.0      0.001468    533.18317    702.36920
  763.0      0.001311    533.10773    729.16852
  725.0      0.001379    533.03259    756.74109
  749.0      0.001335    532.95782    784.08807
  789.0      0.001267    532.88348    810.20203
  771.0      0.001297    532.80939    834.21252
  802.0      0.001247    532.73572    855.57965
  853.0      0.001172    532.66241    874.22369
  895.0      0.001117    532.58942    890.58618
  946.0      0.001057    532.51678    905.55127
  956.0      0.001046    532.44452    920.16693
  983.0      0.001017    532.37262    935.70996
  985.0      0.001015    532.30103    953.00458
  1040.0     0.000962    532.22986    972.76837
  1051.0     0.000951    532.15906    995.28442
  1097.0     0.000912    532.08856    1021.11847
  1075.0     0.000930    532.01843    1050.97327
  1172.0     0.000853    531.94861    1086.16858
  1240.0     0.000806    531.87927    1128.55298
  1198.0     0.000835    531.81018    1180.25867
  1296.0     0.000772    531.74152    1243.21143
  1363.0     0.000734    531.67316    1318.56543
  1398.0     0.000715    531.60516    1406.34985
  1500.0     0.000667    531.53754    1505.05969
  1634.0     0.000612    531.47028    1611.63098
  1710.0     0.000585    531.40338    1721.45435
  1749.0     0.000572    531.33685    1828.58069
  1822.0     0.000549    531.27069    1926.16553
  1885.0     0.000531    531.20483    2007.12939
  1853.0     0.000540    531.13934    2064.82446
  1943.0     0.000515    531.07428    2093.47485
  1932.0     0.000518    531.00952    2088.26074
  1848.0     0.000541    530.94513    2048.00879
  1754.0     0.000570    530.88110    1972.90796
  1577.0     0.000634    530.81744    1867.29932
  1589.0     0.000629    530.75409    1738.61462
  1432.0     0.000698    530.69116    1595.95752
  1349.0     0.000741    530.62854    1448.47131
  1258.0     0.000795    530.56635    1304.14441
  1152.0     0.000868    530.50452    1169.21338
  1142.0     0.000876    530.44299    1047.99463
  1034.0     0.000967    530.38184    942.96490
  1011.0     0.000989    530.32104    854.97833
  981.0      0.001019    530.26062    783.57587
  864.0      0.001157    530.20056    727.36926
  833.0      0.001200    530.14087    684.38733
  797.0      0.001255    530.08148    651.99231
  775.0      0.001290    530.02252    628.91754
  733.0      0.001364    529.96393    612.78778
  719.0      0.001391    529.90564    602.00781
  693.0      0.001443    529.84772    595.34949
  630.0      0.001587    529.79022    591.92938
  618.0      0.001618    529.73303    591.15350
  659.0      0.001517    529.67621    592.64417
  651.0      0.001536    529.61975    596.16089
  595.0      0.001681    529.56366    601.53033
  555.0      0.001802    529.50793    608.56213
  564.0      0.001773    529.45258    617.02753
  558.0      0.001792    529.39752    626.60571
  636.0      0.001572    529.34290    636.87518
  592.0      0.001689    529.28857    647.31683
  607.0      0.001647    529.23468    657.34430
  611.0      0.001637    529.18109    666.35809
  648.0      0.001543    529.12793    673.83624
  632.0      0.001582    529.07507    679.43860
  641.0      0.001560    529.02258    683.09430
  598.0      0.001672    528.97052    685.01410
  605.0      0.001653    528.91870    685.60010
  657.0      0.001522    528.86737    685.30566
  725.0      0.001379    528.81628    684.51141
  733.0      0.001364    528.76563    683.46857
  728.0      0.001374    528.71533    682.30969
  766.0      0.001305    528.66541    681.10425
  746.0      0.001340    528.61578    679.96075
  744.0      0.001344    528.56659    679.12164
  777.0      0.001287    528.51770    679.01703
  760.0      0.001316    528.46918    680.25079
  789.0      0.001267    528.42108    683.54767
  774.0      0.001292    528.37329    689.71533
  795.0      0.001258    528.32587    699.63293
  810.0      0.001235    528.27881    714.25415
  847.0      0.001181    528.23212    734.58832
  848.0      0.001179    528.18579    761.65094
  855.0      0.001170    528.13983    796.34338
  859.0      0.001164    528.09424    839.24445
  914.0      0.001094    528.04895    890.33875
  943.0      0.001060    528.00409    948.74469
  998.0      0.001002    527.95953    1012.50281
  1037.0     0.000964    527.91541    1078.57703
  1084.0     0.000923    527.87158    1142.80798
  1104.0     0.000906    527.82813    1200.24023
  1217.0     0.000822    527.78503    1245.58191
  1162.0     0.000861    527.74231    1273.92224
  1150.0     0.000870    527.69995    1281.65100
  1197.0     0.000835    527.65796    1267.38367
  1128.0     0.000887    527.61633    1232.48254
  1072.0     0.000933    527.57501    1180.77148
  1029.0     0.000972    527.53412    1117.54370
  961.0      0.001041    527.49353    1048.43799
  887.0      0.001127    527.45331    978.62897
  909.0      0.001100    527.41351    912.38336
  811.0      0.001233    527.37402    852.86133
  740.0      0.001351    527.33490    802.05908
  716.0      0.001397    527.29614    760.84564
  717.0      0.001395    527.25769    729.10413
  713.0      0.001403    527.21967    705.96112
  677.0      0.001477    527.18195    689.94629
  663.0      0.001508    527.14465    679.19263
  692.0      0.001445    527.10767    671.92914
  747.0      0.001339    527.07104    666.50378
  687.0      0.001456    527.03479    661.64832
  701.0      0.001427    526.99890    656.53040
  692.0      0.001445    526.96338    650.95123
  742.0      0.001348    526.92822    645.14832
  791.0      0.001264    526.89337    639.66949
  780.0      0.001282    526.85889    635.16888
  730.0      0.001370    526.82483    632.25494
  737.0      0.001357    526.79108    631.61139
  738.0      0.001355    526.75769    633.08472
  726.0      0.001377    526.72461    637.08124
  722.0      0.001385    526.69196    643.04529
  765.0      0.001307    526.65961    650.70111
  705.0      0.001418    526.62769    659.16284
  715.0      0.001399    526.59607    667.43860
  725.0      0.001379    526.56482    674.42926
  654.0      0.001529    526.53387    679.06458
  629.0      0.001590    526.50336    680.47925
  618.0      0.001618    526.47314    678.14862
  626.0      0.001597    526.44336    672.05133
  604.0      0.001656    526.41388    662.49872
  605.0      0.001653    526.38470    650.45642
  605.0      0.001653    526.35596    636.87195
  574.0      0.001742    526.32758    622.61560
  540.0      0.001852    526.29950    608.58319
  549.0      0.001821    526.27179    595.30060
  542.0      0.001845    526.24445    583.29980
  532.0      0.001880    526.21741    572.77924
  527.0      0.001898    526.19080    563.99963
  533.0      0.001876    526.16449    556.84753
  547.0      0.001828    526.13855    551.18738
  531.0      0.001883    526.11298    546.49854
  541.0      0.001848    526.08771    543.21106
  536.0      0.001866    526.06287    540.77423
  567.0      0.001764    526.03833    538.98981
  588.0      0.001701    526.01410    537.69196
  576.0      0.001736    525.99030    536.38434
  536.0      0.001866    525.96680    535.23419
  533.0      0.001876    525.94366    534.77515
  536.0      0.001866    525.92090    534.47571
  539.0      0.001855    525.89844    534.31018
  515.0      0.001942    525.87640    534.26263
  515.0      0.001942    525.85461    534.32129
  518.0      0.001931    525.83325    534.47504
  519.0      0.001927    525.81219    534.71100
  541.0      0.001848    525.79156    535.01331
  560.0      0.001786    525.77118    535.36163
  499.0      0.002004    525.75122    535.73309
  536.0      0.001866    525.73157    536.10364
  513.0      0.001949    525.71228    536.45020
  483.0      0.002070    525.69330    536.75488
  532.0      0.001880    525.67468    537.00854
  479.0      0.002088    525.65643    537.21100
  521.0      0.001919    525.63855    537.36816
  564.0      0.001773    525.62097    537.48480
  538.0      0.001859    525.60376    537.55939
  550.0      0.001818    525.58685    537.58179
  546.0      0.001832    525.57031    537.53363
  562.0      0.001779    525.55414    537.39404
  512.0      0.001953    525.53833    537.14465
  533.0      0.001876    525.52283    536.77887
  544.0      0.001838    525.50763    536.30670
  570.0      0.001754    525.49280    535.75507
  488.0      0.002049    525.47833    535.16150
  514.0      0.001946    525.46423    534.56653
  553.0      0.001808    525.45044    534.00708
  545.0      0.001835    525.43701    533.50677
  512.0      0.001953    525.42389    533.10052
  517.0      0.001934    525.41107    532.72626
  465.0      0.002151    525.39868    532.52130
  500.0      0.002000    525.38660    532.41010
  545.0      0.001835    525.37482    532.37793
  539.0      0.001855    525.36340    532.43884
  575.0      0.001739    525.35236    532.49957
  537.0      0.001862    525.34161    532.57001
  551.0      0.001815    525.33124    532.62927
  541.0      0.001848    525.32117    532.72870
  504.0      0.001984    525.31140    532.67670
  492.0      0.002033    525.30206    532.65118
  533.0      0.001876    525.29297    532.60663
  554.0      0.001805    525.28430    532.55762
  537.0      0.001862    525.27588    532.51935
  575.0      0.001739    525.26782    532.50610
  554.0      0.001805    525.26013    532.53015
  537.0      0.001862    525.25275    532.60345
  554.0      0.001805    525.24573    532.69019
  573.0      0.001745    525.23901    532.89038
  515.0      0.001942    525.23260    533.16992
  564.0      0.001773    525.22656    533.54401
  532.0      0.001880    525.22083    534.03589
  525.0      0.001905    525.21545    534.68079
  579.0      0.001727    525.21039    535.53107
  556.0      0.001799    525.20569    536.66309
  567.0      0.001764    525.20129    538.18195
  564.0      0.001773    525.19720    540.22888
  576.0      0.001736    525.19348    543.75189
  562.0      0.001779    525.19006    547.44659
  560.0      0.001786    525.18701    551.76270
  588.0      0.001701    525.18420    558.85480
  601.0      0.001664    525.18182    566.90997
  621.0      0.001610    525.17969    576.91339
  655.0      0.001527    525.17792    589.03333
  617.0      0.001621    525.17645    603.33575
  669.0      0.001495    525.17535    619.75641
  679.0      0.001473    525.17450    638.06439
  668.0      0.001497    525.17401    657.87823
  735.0      0.001361    525.17389    678.67657
  785.0      0.001274    525.17407    699.80200
  748.0      0.001337    525.17456    720.58881
  807.0      0.001239    525.17535    740.42731
  872.0      0.001147    525.17645    758.89148
  845.0      0.001183    525.17792    775.85089
  852.0      0.001174    525.17969    791.51093
  870.0      0.001149    525.18176    806.36273
  887.0      0.001127    525.18420    820.87097
  854.0      0.001171    525.18689    835.62506
  917.0      0.001091    525.18994    850.66656
  824.0      0.001214    525.19330    865.67090
  834.0      0.001199    525.19702    879.82947
  886.0      0.001129    525.20099    891.89105
  914.0      0.001094    525.20532    900.31635
  930.0      0.001075    525.20990    903.55145
  821.0      0.001218    525.21484    900.38733
  810.0      0.001235    525.22009    890.33008
  806.0      0.001241    525.22571    874.33264
  818.0      0.001222    525.23157    852.51324
  820.0      0.001220    525.23773    827.20819
  734.0      0.001362    525.24426    800.41339
  748.0      0.001337    525.25104    774.02496
  698.0      0.001433    525.25818    749.62994
  690.0      0.001449    525.26563    728.30927
  683.0      0.001464    525.27338    710.91327
  697.0      0.001435    525.28137    697.56036
  635.0      0.001575    525.28973    688.43622
  701.0      0.001427    525.29840    682.51031
  643.0      0.001555    525.30737    678.84186
  652.0      0.001534    525.31665    676.66711
  658.0      0.001520    525.32623    675.01385
  672.0      0.001488    525.33612    673.06201
  595.0      0.001681    525.34631    670.29553
  615.0      0.001626    525.35681    666.32361
  600.0      0.001667    525.36761    661.10004
  651.0      0.001536    525.37872    654.64246
  637.0      0.001570    525.39014    647.02344
  583.0      0.001715    525.40179    638.49445
  557.0      0.001795    525.41382    629.03760
  601.0      0.001664    525.42615    619.02655
  574.0      0.001742    525.43872    608.85345
  615.0      0.001626    525.45160    598.89642
  637.0      0.001570    525.46484    589.48730
  598.0      0.001672    525.47833    580.87604
  593.0      0.001686    525.49213    573.22595
  548.0      0.001825    525.50616    566.61926
  576.0      0.001736    525.52057    561.07037
  581.0      0.001721    525.53522    556.53870
  569.0      0.001757    525.55017    552.99353
  576.0      0.001736    525.56549    550.23022
  546.0      0.001832    525.58099    548.17719
  531.0      0.001883    525.59686    546.71417
  526.0      0.001901    525.61298    545.72815
  534.0      0.001873    525.62946    545.12024
  521.0      0.001919    525.64612    544.80835
  515.0      0.001942    525.66315    544.73041
  556.0      0.001799    525.68042    544.83746
  544.0      0.001838    525.69800    545.10895
  536.0      0.001866    525.71588    545.53137
  565.0      0.001770    525.73401    546.10840
  532.0      0.001880    525.75244    546.86230
  517.0      0.001934    525.77118    547.83246
  529.0      0.001890    525.79022    549.07770
  546.0      0.001832    525.80951    550.67999
  526.0      0.001901    525.82904    552.74414
  540.0      0.001852    525.84888    555.39380
  536.0      0.001866    525.86908    558.78674
  575.0      0.001739    525.88947    563.07928
  557.0      0.001795    525.91016    568.43280
  610.0      0.001639    525.93109    574.99219
  589.0      0.001698    525.95239    582.86407
  622.0      0.001608    525.97388    592.09143
  644.0      0.001553    525.99573    602.62805
  644.0      0.001553    526.01776    614.31622
  641.0      0.001560    526.04016    626.87097
  675.0      0.001481    526.06274    639.87793
  681.0      0.001468    526.08569    652.81171
  704.0      0.001420    526.10883    665.07898
  726.0      0.001377    526.13226    676.09186
  695.0      0.001439    526.15601    685.35834
  691.0      0.001447    526.17999    692.58081
  727.0      0.001376    526.20422    697.74408
  765.0      0.001307    526.22876    701.20032
  726.0      0.001377    526.25354    703.76990
  780.0      0.001282    526.27863    706.77209
  714.0      0.001401    526.30396    712.07471
  735.0      0.001361    526.32953    722.00671
  714.0      0.001401    526.35541    739.27069
  744.0      0.001344    526.38153    766.87634
  758.0      0.001319    526.40790    807.84064
  813.0      0.001230    526.43451    865.23535
  820.0      0.001220    526.46143    941.74615
  948.0      0.001055    526.48859    1039.35205
  1035.0     0.000966    526.51605    1158.91345
  1173.0     0.000853    526.54370    1299.73816
  1361.0     0.000735    526.57166    1459.19409
  1497.0     0.000668    526.59985    1632.41931
  1749.0     0.000572    526.62836    1812.20593
  1984.0     0.000504    526.65704    1989.13171
  2212.0     0.000452    526.68604    2152.05225
  2287.0     0.000437    526.71521    2289.02515
  2581.0     0.000387    526.74475    2388.71265
  2588.0     0.000386    526.77441    2442.10303
  2701.0     0.000370    526.80444    2444.15234
  2599.0     0.000385    526.83466    2394.74927
  2551.0     0.000392    526.86517    2298.73218
  2395.0     0.000418    526.89587    2165.00732
  2284.0     0.000438    526.92682    2004.99585
  2032.0     0.000492    526.95807    1830.81787
  1809.0     0.000553    526.98956    1653.75989
  1612.0     0.000620    527.02124    1483.31140
  1454.0     0.000688    527.05322    1326.75098
  1352.0     0.000740    527.08545    1189.09851
  1234.0     0.000810    527.11786    1073.31677
  1249.0     0.000801    527.15057    980.63428
  1224.0     0.000817    527.18347    910.93591
  1135.0     0.000881    527.21667    863.33411
  1166.0     0.000858    527.25012    836.26471
  1122.0     0.000891    527.28375    828.24384
  1125.0     0.000889    527.31763    837.55963
  1187.0     0.000842    527.35175    862.54413
  1178.0     0.000849    527.38611    901.66449
  1157.0     0.000864    527.42072    953.16394
  1222.0     0.000818    527.45557    1015.01849
  1195.0     0.000837    527.49060    1084.78723
  1264.0     0.000791    527.52588    1159.51123
  1312.0     0.000762    527.56146    1235.74585
  1316.0     0.000760    527.59717    1309.70435
  1301.0     0.000769    527.63318    1377.40930
  1376.0     0.000727    527.66937    1435.91370
  1414.0     0.000707    527.70587    1482.78625
  1365.0     0.000733    527.74249    1517.62561
  1398.0     0.000715    527.77942    1541.48462
  1379.0     0.000725    527.81653    1556.56689
  1443.0     0.000693    527.85388    1565.19531
  1454.0     0.000688    527.89148    1568.96216
  1470.0     0.000680    527.92926    1568.26550
  1525.0     0.000656    527.96729    1562.31592
  1552.0     0.000644    528.00549    1549.43140
  1478.0     0.000677    528.04395    1527.71411
  1521.0     0.000657    528.08264    1495.84778
  1474.0     0.000678    528.12146    1453.77344
  1595.0     0.000627    528.16058    1402.89087
  1553.0     0.000644    528.19989    1345.69458
  1542.0     0.000649    528.23944    1285.01550
  1514.0     0.000661    528.27917    1223.55591
  1449.0     0.000690    528.31915    1163.48706
  1463.0     0.000684    528.35931    1106.39063
  1322.0     0.000756    528.39972    1053.03345
  1226.0     0.000816    528.44031    1003.87622
  1204.0     0.000831    528.48114    958.40479
  1199.0     0.000834    528.52216    916.49823
  1112.0     0.000899    528.56335    877.83368
  978.0      0.001022    528.60480    842.31879
  924.0      0.001082    528.64642    810.03363
  879.0      0.001138    528.68823    780.99188
  866.0      0.001155    528.73029    755.24976
  804.0      0.001244    528.77252    732.70087
  768.0      0.001302    528.81494    712.78467
  778.0      0.001285    528.85760    695.22668
  683.0      0.001464    528.90045    679.53516
  671.0      0.001490    528.94348    665.22906
  664.0      0.001506    528.98669    651.91895
  685.0      0.001460    529.03015    639.36566
  686.0      0.001458    529.07379    627.48224
  663.0      0.001508    529.11761    616.29028
  624.0      0.001603    529.16162    605.86633
  627.0      0.001595    529.20581    596.29773
  620.0      0.001613    529.25018    587.66327
  600.0      0.001667    529.29480    580.01154
  583.0      0.001715    529.33960    573.36462
  594.0      0.001684    529.38452    567.70685
  598.0      0.001672    529.42969    562.98755
  579.0      0.001727    529.47504    559.12714
  579.0      0.001727    529.52057    556.02643
  581.0      0.001721    529.56628    553.57648
  615.0      0.001626    529.61212    551.67010
  558.0      0.001792    529.65820    550.23279
  564.0      0.001773    529.70447    549.13153
  610.0      0.001639    529.75092    548.32599
  518.0      0.001931    529.79755    547.77057
  557.0      0.001795    529.84430    547.44006
  599.0      0.001669    529.89130    547.36871
  576.0      0.001736    529.93842    547.49048
  632.0      0.001582    529.98572    547.87469
  627.0      0.001595    530.03320    548.56720
  566.0      0.001767    530.08087    549.62604
  576.0      0.001736    530.12872    551.11639
  563.0      0.001776    530.17670    553.15594
  580.0      0.001724    530.22491    555.70020
  635.0      0.001575    530.27325    558.83716
  619.0      0.001616    530.32178    562.53613
  604.0      0.001656    530.37048    566.82568
  604.0      0.001656    530.41931    571.57208
  599.0      0.001669    530.46832    576.61340
  638.0      0.001567    530.51746    581.65863
  625.0      0.001600    530.56683    586.56219
  592.0      0.001689    530.61627    590.94147
  568.0      0.001761    530.66595    594.55835
  558.0      0.001792    530.71576    596.93030
  581.0      0.001721    530.76575    597.90015
  567.0      0.001764    530.81586    597.33197
  575.0      0.001739    530.86615    595.23962
  567.0      0.001764    530.91656    591.79749
  532.0      0.001880    530.96716    587.30585
  536.0      0.001866    531.01794    582.13007
  582.0      0.001718    531.06879    576.64673
  555.0      0.001802    531.11987    571.14850
  562.0      0.001779    531.17108    565.91559
  576.0      0.001736    531.22241    561.14459
  502.0      0.001992    531.27386    556.96356
  538.0      0.001859    531.32556    553.43927
  563.0      0.001776    531.37732    550.58783
  538.0      0.001859    531.42926    548.38806
  557.0      0.001795    531.48132    546.02002
  542.0      0.001845    531.53351    545.01855
  556.0      0.001799    531.58588    544.48206
  569.0      0.001757    531.63837    543.63684
  534.0      0.001873    531.69098    543.98083
  578.0      0.001730    531.74377    544.72083
  489.0      0.002045    531.79663    545.84564
  540.0      0.001852    531.84973    547.34595
  599.0      0.001669    531.90289    549.20422
  603.0      0.001658    531.95618    551.40179
  588.0      0.001701    532.00964    553.88647
  612.0      0.001634    532.06317    556.57593
  639.0      0.001565    532.11688    559.38757
  600.0      0.001667    532.17065    562.18274
  590.0      0.001695    532.22467    564.81232
  597.0      0.001675    532.27875    567.11694
  591.0      0.001692    532.33295    568.94794
  623.0      0.001605    532.38727    570.16052
  583.0      0.001715    532.44171    570.66217
  620.0      0.001613    532.49628    570.47192
  609.0      0.001642    532.55096    569.64691
  622.0      0.001608    532.60577    568.33899
  595.0      0.001681    532.66071    566.75635
  570.0      0.001754    532.71576    565.13428
  601.0      0.001664    532.77094    563.71826
  577.0      0.001733    532.82623    562.75702
  566.0      0.001767    532.88159    562.50214
  640.0      0.001563    532.93707    563.21350
  594.0      0.001684    532.99274    565.16412
  564.0      0.001773    533.04846    568.11279
  572.0      0.001748    533.10425    573.41779
  606.0      0.001650    533.16022    580.90002
  602.0      0.001661    533.21631    590.85620
  716.0      0.001397    533.27240    603.60138
  647.0      0.001546    533.32867    619.34332
  683.0      0.001464    533.38507    638.25958
  664.0      0.001506    533.44153    660.38544
  711.0      0.001406    533.49811    685.62793
  733.0      0.001364    533.55475    713.26190
  776.0      0.001289    533.61151    743.24048
  809.0      0.001236    533.66840    774.92413
  857.0      0.001167    533.72534    807.20551
  855.0      0.001170    533.78241    839.13123
  891.0      0.001122    533.83954    869.78082
  894.0      0.001119    533.89679    898.28534
  906.0      0.001104    533.95410    924.02722
  961.0      0.001041    534.01160    946.32825
  1000.0     0.001000    534.06909    964.77850
  995.0      0.001005    534.12671    978.73615
  970.0      0.001031    534.18439    988.02350
  992.0      0.001008    534.24219    992.91162
  1053.0     0.000950    534.30005    993.47308
  1021.0     0.000979    534.35797    990.81488
  1063.0     0.000941    534.41602    982.77765
  994.0      0.001006    534.47412    970.09381
  954.0      0.001048    534.53235    952.43976
  884.0      0.001131    534.59058    929.69965
  866.0      0.001155    534.64893    902.19165
  820.0      0.001220    534.70734    870.76978
  765.0      0.001307    534.76587    836.73773
  718.0      0.001393    534.82446    801.57507
  736.0      0.001359    534.88306    766.88983
  750.0      0.001333    534.94183    733.95435
  698.0      0.001433    535.00061    703.81995
  690.0      0.001449    535.05945    677.24786
  676.0      0.001479    535.11841    654.70941
  610.0      0.001639    535.17743    636.41791
  620.0      0.001613    535.23645    622.36121
  646.0      0.001548    535.29559    612.35315
  693.0      0.001443    535.35480    606.07617
  654.0      0.001529    535.41406    603.13708
  616.0      0.001623    535.47339    603.09747
  608.0      0.001645    535.53271    605.50104
  619.0      0.001616    535.59222    609.88635
  610.0      0.001639    535.65167    615.79370
  612.0      0.001634    535.71124    622.77307
  601.0      0.001664    535.77087    630.41248
  615.0      0.001626    535.83051    638.27911
  613.0      0.001631    535.89026    646.04401
  663.0      0.001508    535.95001    653.41260
  625.0      0.001600    536.00983    660.13843
  673.0      0.001486    536.06970    666.02106
  621.0      0.001610    536.12964    670.91998
  664.0      0.001506    536.18958    674.77722
  647.0      0.001546    536.24957    677.63306
  693.0      0.001443    536.30963    679.57941
  671.0      0.001490    536.36975    680.78418
  643.0      0.001555    536.42993    681.44830
  636.0      0.001572    536.49005    681.81531
  644.0      0.001553    536.55029    682.16077
  630.0      0.001587    536.61060    682.73712
  667.0      0.001499    536.67090    683.70154
  630.0      0.001587    536.73120    685.04974
  661.0      0.001513    536.79156    686.58813
  592.0      0.001689    536.85199    687.95300
  664.0      0.001506    536.91241    688.65460
  621.0      0.001610    536.97296    688.18445
  603.0      0.001658    537.03345    686.15515
  627.0      0.001595    537.09399    682.37823
  602.0      0.001661    537.15454    676.94806
  633.0      0.001580    537.21515    670.15881
  655.0      0.001527    537.27576    662.56458
  665.0      0.001504    537.33636    654.61560
  674.0      0.001484    537.39703    646.74817
  658.0      0.001520    537.45770    639.30371
  628.0      0.001592    537.51843    632.52380
  625.0      0.001600    537.57916    626.55847
  592.0      0.001689    537.63989    621.47766
  626.0      0.001597    537.70068    617.27710
  666.0      0.001502    537.76147    613.87585
  694.0      0.001441    537.82227    611.11511
  661.0      0.001513    537.88306    608.77081
  641.0      0.001560    537.94391    606.57990
  665.0      0.001504    538.00470    604.28168
  602.0      0.001661    538.06555    601.66736
  656.0      0.001524    538.12640    598.62183
  606.0      0.001650    538.18732    595.15649
  621.0      0.001610    538.24817    591.35718
  591.0      0.001692    538.30902    587.40503
  616.0      0.001623    538.36987    583.49377
  614.0      0.001629    538.43079    579.80432
  598.0      0.001672    538.49170    576.48676
  592.0      0.001689    538.55255    573.64789
  598.0      0.001672    538.61346    571.34888
  574.0      0.001742    538.67432    569.60504
  556.0      0.001799    538.73523    568.38965
  572.0      0.001748    538.79608    567.64355
  563.0      0.001776    538.85693    567.28357
  621.0      0.001610    538.91779    567.22870
  593.0      0.001686    538.97864    567.46301
  624.0      0.001603    539.03949    567.81158
  633.0      0.001580    539.10034    568.30719
  556.0      0.001799    539.16119    569.02612
  656.0      0.001524    539.22198    570.02411
  589.0      0.001698    539.28278    571.43243
  638.0      0.001567    539.34357    573.32654
  631.0      0.001585    539.40436    575.90411
  637.0      0.001570    539.46509    579.20538
  599.0      0.001669    539.52582    583.38757
  592.0      0.001689    539.58655    588.55353
  612.0      0.001634    539.64722    594.76379
  627.0      0.001595    539.70795    602.09351
  631.0      0.001585    539.76855    610.57623
  649.0      0.001541    539.82916    620.29547
  631.0      0.001585    539.88977    631.44586
  636.0      0.001572    539.95032    644.14185
  641.0      0.001560    540.01086    658.84857
  634.0      0.001577    540.07141    676.22980
  629.0      0.001590    540.13190    697.19348
  687.0      0.001456    540.19232    723.01257
  711.0      0.001406    540.25275    755.24664
  746.0      0.001340    540.31311    795.67664
  812.0      0.001232    540.37347    846.15656
  797.0      0.001255    540.43378    908.37878
  904.0      0.001106    540.49408    983.57269
  1001.0     0.000999    540.55432    1072.08398
  1113.0     0.000898    540.61450    1173.41602
  1241.0     0.000806    540.67468    1285.45203
  1310.0     0.000763    540.73480    1404.67212
  1461.0     0.000684    540.79486    1526.02747
  1533.0     0.000652    540.85486    1643.31897
  1704.0     0.000587    540.91486    1749.11243
  1766.0     0.000566    540.97479    1836.09436
  1861.0     0.000537    541.03467    1896.83386
  1953.0     0.000512    541.09454    1925.39893
  1911.0     0.000523    541.15430    1918.31897
  1848.0     0.000541    541.21405    1875.54443
  1845.0     0.000542    541.27374    1800.69678
  1659.0     0.000603    541.33331    1700.25879
  1465.0     0.000683    541.39288    1582.25476
  1412.0     0.000708    541.45239    1455.19092
  1235.0     0.000810    541.51190    1326.39233
  1140.0     0.000877    541.57129    1202.06824
  1021.0     0.000979    541.63062    1086.93921
  926.0      0.001080    541.68988    984.19830
  863.0      0.001159    541.74908    895.59052
  765.0      0.001307    541.80823    821.59680
  729.0      0.001372    541.86731    761.68866
  694.0      0.001441    541.92633    714.61896
  717.0      0.001395    541.98529    678.70935
  726.0      0.001377    542.04419    652.10352
  687.0      0.001456    542.10297    632.96265
  670.0      0.001493    542.16174    619.61774
  647.0      0.001546    542.22040    610.58411
  672.0      0.001488    542.27899    604.69501
  687.0      0.001456    542.33752    600.92157
  665.0      0.001504    542.39600    598.53491
  625.0      0.001600    542.45435    596.95142
  608.0      0.001645    542.51263    595.73499
  612.0      0.001634    542.57086    594.57819
  644.0      0.001553    542.62897    593.26385
  573.0      0.001745    542.68701    592.71320
  543.0      0.001842    542.74500    590.98407
  592.0      0.001689    542.80286    589.09039
  541.0      0.001848    542.86072    587.01404
  594.0      0.001684    542.91840    584.79926
  534.0      0.001873    542.97607    582.56689
  556.0      0.001799    543.03357    580.36206
  529.0      0.001890    543.09106    579.06848
  551.0      0.001815    543.14838    576.88251
  566.0      0.001767    543.20569    574.73260
  535.0      0.001869    543.26282    572.76074
  530.0      0.001887    543.31995    570.94366
  556.0      0.001799    543.37689    569.29620
  528.0      0.001894    543.43378    567.81921
  512.0      0.001953    543.49060    566.50116
  529.0      0.001890    543.54730    565.32257
  523.0      0.001912    543.60388    564.26172
  515.0      0.001942    543.66040    563.37775
  532.0      0.001880    543.71674    562.50470
  530.0      0.001887    543.77307    561.62793
  510.0      0.001961    543.82922    560.93152
  511.0      0.001957    543.88531    560.38672
  531.0      0.001883    543.94128    559.90680
  558.0      0.001792    543.99713    559.55811
  563.0      0.001776    544.05292    559.35797
  527.0      0.001898    544.10858    559.32404
  547.0      0.001828    544.16412    559.47491
  540.0      0.001852    544.21948    559.88379
  513.0      0.001949    544.27484    560.43433
  543.0      0.001842    544.33002    561.22723
  520.0      0.001923    544.38507    562.35565
  554.0      0.001805    544.44006    563.61639
  535.0      0.001869    544.49487    565.11176
  566.0      0.001767    544.54962    566.84271
  539.0      0.001855    544.60425    568.81213
  517.0      0.001934    544.65869    571.03528
  523.0      0.001912    544.71301    573.50562
  573.0      0.001745    544.76727    576.33154
  531.0      0.001883    544.82141    579.55353
  571.0      0.001751    544.87537    583.27588
  546.0      0.001832    544.92926    587.63525
  562.0      0.001779    544.98297    592.79053
  600.0      0.001667    545.03656    598.89917
  605.0      0.001653    545.09003    606.08929
  592.0      0.001689    545.14337    614.42969
  641.0      0.001560    545.19659    623.90778
  654.0      0.001529    545.24963    634.41339
  663.0      0.001508    545.30261    645.72998
  633.0      0.001580    545.35541    657.54034
  661.0      0.001513    545.40808    669.44189
  631.0      0.001585    545.46057    680.99054
  596.0      0.001678    545.51300    691.76208
  639.0      0.001565    545.56519    701.41473
  668.0      0.001497    545.61731    709.76379
  612.0      0.001634    545.66931    716.74084
  652.0      0.001534    545.72113    722.37579
  604.0      0.001656    545.77277    726.73950
  647.0      0.001546    545.82428    729.91302
  671.0      0.001490    545.87567    731.98376
  622.0      0.001608    545.92694    733.04688
  652.0      0.001534    545.97803    733.19885
  660.0      0.001515    546.02893    732.51471
  658.0      0.001520    546.07971    731.00793
  647.0      0.001546    546.13037    728.60583
  657.0      0.001522    546.18085    725.17236
  661.0      0.001513    546.23114    720.45673
  683.0      0.001464    546.28131    714.29639
  639.0      0.001565    546.33130    706.61096
  682.0      0.001466    546.38116    697.45526
  679.0      0.001473    546.43091    687.05890
  663.0      0.001508    546.48041    675.84088
  630.0      0.001587    546.52979    664.24298
  593.0      0.001686    546.57898    652.71484
  603.0      0.001658    546.62805    641.78827
  616.0      0.001623    546.67694    631.92212
  605.0      0.001653    546.72565    623.25787
  644.0      0.001553    546.77423    616.21436
  585.0      0.001709    546.82257    610.73212
  546.0      0.001832    546.87079    606.95374
  612.0      0.001634    546.91888    605.06464
  652.0      0.001534    546.96674    604.82837
  620.0      0.001613    547.01447    605.68427
  628.0      0.001592    547.06201    607.71942
  622.0      0.001608    547.10938    610.55811
  661.0      0.001513    547.15656    614.18726
  680.0      0.001471    547.20355    618.20514
  659.0      0.001517    547.25037    622.35400
  644.0      0.001553    547.29706    625.38159
  650.0      0.001538    547.34351    629.19336
  657.0      0.001522    547.38983    632.66541
  671.0      0.001490    547.43591    635.85181
  700.0      0.001429    547.48187    638.97791
  737.0      0.001357    547.52765    642.46729
  710.0      0.001408    547.57318    646.94238
  802.0      0.001247    547.61859    653.21771
  747.0      0.001339    547.66376    662.41925
  823.0      0.001215    547.70880    675.47400
  843.0      0.001186    547.75360    693.88257
  883.0      0.001133    547.79828    719.20660
  943.0      0.001060    547.84271    753.16730
  1035.0     0.000966    547.88696    797.58606
  1148.0     0.000871    547.93103    854.28821
  1201.0     0.000833    547.97491    924.95453
  1337.0     0.000748    548.01855    1010.95520
  1412.0     0.000708    548.06207    1113.12683
  1477.0     0.000677    548.10535    1231.62292
  1579.0     0.000633    548.14844    1365.82117
  1764.0     0.000567    548.19135    1513.52307
  1841.0     0.000543    548.23401    1671.80383
  2024.0     0.000494    548.27655    1836.21143
  2251.0     0.000444    548.31879    2000.94568
  2303.0     0.000434    548.36090    2159.10693
  2455.0     0.000407    548.40283    2303.25806
  2431.0     0.000411    548.44446    2426.36011
  2525.0     0.000396    548.48596    2522.73901
  2529.0     0.000395    548.52722    2588.70117
  2515.0     0.000398    548.56830    2622.43896
  2614.0     0.000383    548.60919    2623.41895
  2565.0     0.000390    548.64984    2591.80908
  2465.0     0.000406    548.69031    2528.45215
  2456.0     0.000407    548.73053    2435.37695
  2387.0     0.000419    548.77057    2316.45337
  2248.0     0.000445    548.81036    2177.59180
  2074.0     0.000482    548.84998    2026.17651
  1964.0     0.000509    548.88934    1870.00049
  1788.0     0.000559    548.92853    1716.21277
  1701.0     0.000588    548.96747    1570.65344
  1559.0     0.000641    549.00616    1437.58936
  1407.0     0.000711    549.04474    1319.71899
  1288.0     0.000776    549.08301    1218.31738
  1193.0     0.000838    549.12109    1133.48254
  1059.0     0.000944    549.15894    1064.40002
  1009.0     0.000991    549.19659    1009.63770
  973.0      0.001028    549.23401    967.37964
  909.0      0.001100    549.27124    935.61047
  914.0      0.001094    549.30817    912.25867
  861.0      0.001161    549.34491    895.30701
  854.0      0.001171    549.38141    882.90466
  832.0      0.001202    549.41772    873.21765
  769.0      0.001300    549.45380    864.69550
  790.0      0.001266    549.48962    856.55591
  770.0      0.001299    549.52521    846.38782
  737.0      0.001357    549.56061    833.98022
  749.0      0.001335    549.59570    818.91595
  730.0      0.001370    549.63068    801.22064
  684.0      0.001462    549.66534    781.31781
  711.0      0.001406    549.69977    759.91382
  683.0      0.001464    549.73395    737.84607
  665.0      0.001504    549.76794    715.94830
  609.0      0.001642    549.80170    695.03851
  624.0      0.001603    549.83521    675.53076
  605.0      0.001653    549.86847    658.49701
  628.0      0.001592    549.90143    643.04370
  621.0      0.001610    549.93427    629.84656
  623.0      0.001605    549.96680    618.85907
  580.0      0.001724    549.99908    609.94312
  576.0      0.001736    550.03113    602.89392
  573.0      0.001745    550.06293    597.65747
  584.0      0.001712    550.09448    593.62219
  580.0      0.001724    550.12585    590.74164
  594.0      0.001684    550.15692    588.87714
  619.0      0.001616    550.18774    587.76251
  585.0      0.001709    550.21832    587.34393
  576.0      0.001736    550.24866    587.55585
  548.0      0.001825    550.27875    588.30762
  651.0      0.001536    550.30859    589.73669
  598.0      0.001672    550.33813    591.81396
  596.0      0.001678    550.36749    594.60278
  590.0      0.001695    550.39655    598.18976
  595.0      0.001681    550.42542    602.66663
  617.0      0.001621    550.45398    608.22137
  647.0      0.001546    550.48230    615.02777
  650.0      0.001538    550.51031    624.02502
  652.0      0.001534    550.53815    634.15344
  717.0      0.001395    550.56567    646.66522
  692.0      0.001445    550.59296    661.70953
  670.0      0.001493    550.62000    680.05939
  707.0      0.001414    550.64673    702.37720
  763.0      0.001311    550.67328    729.42188
  779.0      0.001284    550.69952    761.85065
  839.0      0.001192    550.72552    800.41675
  860.0      0.001163    550.75122    845.43512
  846.0      0.001182    550.77667    896.90985
  926.0      0.001080    550.80188    954.29926
  938.0      0.001066    550.82678    1016.48035
  994.0      0.001006    550.85144    1081.60095
  1051.0     0.000951    550.87585    1147.16797
  1153.0     0.000867    550.89996    1210.15491
  1212.0     0.000825    550.92383    1267.21667
  1218.0     0.000821    550.94745    1314.96265
  1320.0     0.000758    550.97076    1350.45056
  1276.0     0.000784    550.99377    1371.01086
  1403.0     0.000713    551.01654    1374.67041
  1333.0     0.000750    551.03906    1361.29651
  1357.0     0.000737    551.06134    1331.96313
  1341.0     0.000746    551.08325    1289.17126
  1252.0     0.000799    551.10498    1236.49670
  1235.0     0.000810    551.12640    1178.03369
  1192.0     0.000839    551.14752    1117.81628
  1126.0     0.000888    551.16840    1059.41931
  1041.0     0.000961    551.18896    1005.67621
  982.0      0.001018    551.20929    958.59180
  900.0      0.001111    551.22931    919.35773
  866.0      0.001155    551.24902    888.25140
  798.0      0.001253    551.26849    865.05640
  734.0      0.001362    551.28772    848.89758
  742.0      0.001348    551.30658    838.58917
  703.0      0.001422    551.32526    832.81689
  786.0      0.001272    551.34357    830.35687
  750.0      0.001333    551.36163    830.47900
  760.0      0.001316    551.37939    832.13196
  758.0      0.001319    551.39691    835.24066
  669.0      0.001495    551.41412    839.58630
  688.0      0.001453    551.43103    845.01959
  700.0      0.001429    551.44769    851.15387
  682.0      0.001466    551.46399    857.36554
  722.0      0.001385    551.48010    862.87915
  749.0      0.001335    551.49585    866.69604
  690.0      0.001449    551.51135    867.80115
  676.0      0.001479    551.52649    865.27020
  719.0      0.001391    551.54144    858.54272
  761.0      0.001314    551.55603    847.51965
  703.0      0.001422    551.57037    832.59985
  667.0      0.001499    551.58441    814.55347
  684.0      0.001462    551.59814    794.35150
  734.0      0.001362    551.61157    773.01904
  675.0      0.001481    551.62469    750.57623
  675.0      0.001481    551.63757    729.84747
  687.0      0.001456    551.65015    710.58649
  715.0      0.001399    551.66235    693.32324
  736.0      0.001359    551.67432    678.52582
  694.0      0.001441    551.68604    666.41595
  697.0      0.001435    551.69739    657.35925
  694.0      0.001441    551.70844    650.18036
  640.0      0.001563    551.71924    647.17407
  692.0      0.001445    551.72968    647.66418
  742.0      0.001348    551.73987    652.14191
  751.0      0.001332    551.74976    661.09583
  740.0      0.001351    551.75934    675.19189
  732.0      0.001366    551.76862    695.30341
  759.0      0.001318    551.77759    722.28729
  787.0      0.001271    551.78625    757.35785
  838.0      0.001193    551.79462    800.31335
  801.0      0.001248    551.80267    851.80011
  856.0      0.001168    551.81042    911.90192
  925.0      0.001081    551.81787    979.78888
  996.0      0.001004    551.82501    1054.23523
  1055.0     0.000948    551.83185    1133.84790
  1165.0     0.000858    551.83838    1215.20947
  1206.0     0.000829    551.84460    1295.74268
  1242.0     0.000805    551.85052    1372.27881
  1466.0     0.000682    551.85614    1441.75610
  1598.0     0.000626    551.86145    1501.31616
  1728.0     0.000579    551.86639    1549.45935
  1752.0     0.000571    551.87109    1586.02124
  1796.0     0.000557    551.87549    1612.48035
  1870.0     0.000535    551.87952    1631.25806
  1995.0     0.000501    551.88330    1645.41309
  2168.0     0.000461    551.88672    1657.37292
  2235.0     0.000447    551.88983    1668.66699
  2231.0     0.000448    551.89264    1680.18628
  2101.0     0.000476    551.89514    1689.84949
  2086.0     0.000479    551.89734    1696.28589
  2022.0     0.000495    551.89923    1696.99084
  2001.0     0.000500    551.90076    1689.51807
  1903.0     0.000525    551.90204    1672.15576
  1858.0     0.000538    551.90295    1644.46423
  1892.0     0.000529    551.90356    1607.23438
  1742.0     0.000574    551.90381    1562.49500
  1691.0     0.000591    551.90381    1512.95325
  1591.0     0.000629    551.90350    1461.72534
  1561.0     0.000641    551.90283    1412.17493
  1611.0     0.000621    551.90186    1367.79004
  1557.0     0.000642    551.90057    1331.98889
  1524.0     0.000656    551.89893    1307.83130
  1436.0     0.000696    551.89703    1297.69885
  1370.0     0.000730    551.89478    1303.04736
  1341.0     0.000746    551.89221    1324.02551
  1272.0     0.000786    551.88928    1359.57397
  1309.0     0.000764    551.88611    1407.22754
  1248.0     0.000801    551.88257    1463.22083
  1162.0     0.000861    551.87872    1522.65222
  1215.0     0.000823    551.87451    1579.77966
  1203.0     0.000831    551.87006    1628.48645
  1145.0     0.000873    551.86517    1662.96436
  1201.0     0.000833    551.86005    1678.57678
  1214.0     0.000824    551.85455    1672.70532
  1306.0     0.000766    551.84882    1645.27271
  1319.0     0.000758    551.84265    1598.69751
  1318.0     0.000759    551.83624    1537.33728
  1408.0     0.000710    551.82947    1466.76880
  1351.0     0.000740    551.82239    1392.64050
  1458.0     0.000686    551.81494    1320.55469
  1432.0     0.000698    551.80719    1255.23547
  1404.0     0.000712    551.79913    1200.32629
  1405.0     0.000712    551.79071    1158.15918
  1404.0     0.000712    551.78198    1129.71021
  1353.0     0.000739    551.77295    1114.62085
  1321.0     0.000757    551.76355    1111.31372
  1303.0     0.000767    551.75385    1117.26343
  1239.0     0.000807    551.74377    1128.92493
  1257.0     0.000796    551.73340    1142.64331
  1162.0     0.000861    551.72272    1154.43286
  1194.0     0.000838    551.71167    1160.97522
  1180.0     0.000847    551.70038    1159.77917
  1101.0     0.000908    551.68866    1149.39856
  1046.0     0.000956    551.67664    1130.54492
  1074.0     0.000931    551.66431    1104.23975
  1087.0     0.000920    551.65161    1073.50830
  1196.0     0.000836    551.63861    1040.88135
  1216.0     0.000822    551.62524    1008.96051
  1204.0     0.000831    551.61157    980.20276
  1177.0     0.000850    551.59760    956.48047
  1244.0     0.000804    551.58325    939.03882
  1131.0     0.000884    551.56854    928.45276
  1108.0     0.000903    551.55359    924.63971
  1089.0     0.000918    551.53821    926.91418
  1110.0     0.000901    551.52252    934.07172
  1044.0     0.000958    551.50653    944.49255
  1004.0     0.000996    551.49017    956.22552
  995.0      0.001005    551.47351    967.20856
  956.0      0.001046    551.45654    975.32825
  936.0      0.001068    551.43921    979.21295
  919.0      0.001088    551.42151    977.76392
  905.0      0.001105    551.40350    970.58081
  878.0      0.001139    551.38513    957.90265
  902.0      0.001109    551.36646    940.69171
  835.0      0.001198    551.34747    920.20190
  837.0      0.001195    551.32813    897.92426
  839.0      0.001192    551.30841    875.45868
  855.0      0.001170    551.28839    854.42029
  874.0      0.001144    551.26801    836.30164
  862.0      0.001160    551.24731    822.42041
  849.0      0.001178    551.22632    813.75128
  873.0      0.001145    551.20490    811.94110
  823.0      0.001215    551.18323    816.76318
  935.0      0.001070    551.16119    829.08478
  944.0      0.001059    551.13879    849.14099
  984.0      0.001016    551.11609    876.99237
  1043.0     0.000959    551.09302    912.70868
  1071.0     0.000934    551.06964    955.17938
  1169.0     0.000855    551.04584    1004.02045
  1268.0     0.000789    551.02179    1058.33057
  1236.0     0.000809    550.99738    1117.07141
  1418.0     0.000705    550.97266    1179.33582
  1428.0     0.000700    550.94757    1243.88306
  1547.0     0.000646    550.92212    1310.18689
  1567.0     0.000638    550.89636    1377.77148
  1734.0     0.000577    550.87024    1446.23792
  1800.0     0.000556    550.84381    1515.02991
  1947.0     0.000514    550.81702    1583.24304
  1948.0     0.000513    550.78992    1649.56299
  2051.0     0.000488    550.76245    1712.31982
  2101.0     0.000476    550.73468    1769.64111
  2114.0     0.000473    550.70654    1819.69470
  2047.0     0.000489    550.67804    1860.91919
  2121.0     0.000471    550.64923    1892.14636
  2049.0     0.000488    550.62006    1912.56152
  2157.0     0.000464    550.59058    1921.60144
  2127.0     0.000470    550.56073    1918.97803
  2051.0     0.000488    550.53052    1904.90771
  1953.0     0.000512    550.50006    1880.42688
  1949.0     0.000513    550.46918    1847.55383
  1848.0     0.000541    550.43799    1809.11865
  1744.0     0.000573    550.40643    1768.23999
  1634.0     0.000612    550.37457    1727.94043
  1623.0     0.000616    550.34235    1689.77820
  1596.0     0.000627    550.30975    1656.24451
  1475.0     0.000678    550.27686    1626.78442
  1360.0     0.000735    550.24365    1600.35168
  1353.0     0.000739    550.21008    1574.92542
  1293.0     0.000773    550.17615    1547.83093
  1287.0     0.000777    550.14185    1516.23010
  1223.0     0.000818    550.10730    1477.74158
  1206.0     0.000829    550.07233    1431.02783
  1192.0     0.000839    550.03705    1376.01587
  1121.0     0.000892    550.00140    1314.14246
  1095.0     0.000913    549.96545    1247.41541
  1051.0     0.000951    549.92914    1177.70728
  1082.0     0.000924    549.89252    1108.61121
  1002.0     0.000998    549.85553    1041.70715
  1005.0     0.000995    549.81824    978.86694
  942.0      0.001062    549.78052    921.61078
  918.0      0.001089    549.74255    870.57367
  887.0      0.001127    549.70422    826.70386
  943.0      0.001060    549.66553    789.85986
  883.0      0.001133    549.62653    759.71191
  899.0      0.001112    549.58710    735.60107
  841.0      0.001189    549.54742    716.89148
  806.0      0.001241    549.50739    702.74524
  857.0      0.001167    549.46698    692.45978
  835.0      0.001198    549.42627    685.48242
  797.0      0.001255    549.38519    681.43500
  778.0      0.001285    549.34381    680.09137
  741.0      0.001350    549.30206    681.32477
  774.0      0.001292    549.26001    685.05164
  751.0      0.001332    549.21759    691.17816
  756.0      0.001323    549.17480    699.59094
  728.0      0.001374    549.13171    709.26880
  723.0      0.001383    549.08826    721.40973
  737.0      0.001357    549.04449    734.82867
  733.0      0.001364    549.00037    748.82294
  811.0      0.001233    548.95593    763.14178
  748.0      0.001337    548.91113    777.01056
  793.0      0.001261    548.86603    789.91962
  765.0      0.001307    548.82056    801.50983
  761.0      0.001314    548.77472    811.58881
  816.0      0.001225    548.72858    820.06488
  849.0      0.001178    548.68213    826.86151
  874.0      0.001144    548.63525    831.83392
  917.0      0.001091    548.58813    834.74677
  998.0      0.001002    548.54065    835.31396
  985.0      0.001015    548.49280    833.29626
  917.0      0.001091    548.44464    828.61615
  941.0      0.001063    548.39612    821.43915
  887.0      0.001127    548.34729    812.19611
  897.0      0.001115    548.29810    801.26569
  857.0      0.001167    548.24860    789.67267
  905.0      0.001105    548.19873    777.62170
  867.0      0.001153    548.14856    766.06256
  825.0      0.001212    548.09802    755.17212
  856.0      0.001168    548.04718    745.27325
  827.0      0.001209    547.99597    736.66095
  830.0      0.001205    547.94440    729.65533
  808.0      0.001238    547.89258    724.62573
  814.0      0.001229    547.84033    721.97321
  806.0      0.001241    547.78784    722.08600
  823.0      0.001215    547.73499    725.38196
  867.0      0.001153    547.68176    731.86530
  822.0      0.001217    547.62823    741.80231
  870.0      0.001149    547.57434    755.16235
  924.0      0.001082    547.52014    771.85449
  951.0      0.001052    547.46564    791.71344
  990.0      0.001010    547.41077    814.52570
  972.0      0.001029    547.35553    840.05823
  1081.0     0.000925    547.30005    867.87878
  1095.0     0.000913    547.24414    898.30823
  1192.0     0.000839    547.18793    931.13629
  1298.0     0.000770    547.13141    966.52325
  1340.0     0.000746    547.07458    1004.78033
  1518.0     0.000659    547.01740    1046.14709
  1559.0     0.000641    546.95984    1090.71448
  1668.0     0.000600    546.90198    1138.03003
  1712.0     0.000584    546.84387    1187.11804
  1812.0     0.000552    546.78534    1236.38501
  1765.0     0.000567    546.72650    1283.68604
  1855.0     0.000539    546.66730    1326.49512
  1861.0     0.000537    546.60785    1362.32532
  1799.0     0.000556    546.54797    1388.92859
  1697.0     0.000589    546.48785    1405.17126
  1723.0     0.000580    546.42731    1409.05444
  1592.0     0.000628    546.36652    1400.72253
  1521.0     0.000657    546.30542    1380.39087
  1377.0     0.000726    546.24396    1348.85193
  1308.0     0.000765    546.18213    1307.45630
  1148.0     0.000871    546.12000    1257.98962
  1107.0     0.000903    546.05762    1202.46045
  1058.0     0.000945    545.99481    1143.44946
  1029.0     0.000972    545.93170    1081.78418
  962.0      0.001040    545.86829    1020.03473
  968.0      0.001033    545.80457    959.83405
  858.0      0.001166    545.74048    902.88745
  832.0      0.001202    545.67609    849.94586
  775.0      0.001290    545.61139    801.95770
  748.0      0.001337    545.54633    759.70709
  711.0      0.001406    545.48102    722.86700
  682.0      0.001466    545.41528    691.49420
  715.0      0.001399    545.34930    664.84930
  676.0      0.001479    545.28302    643.31158
  652.0      0.001534    545.21631    625.92371
  646.0      0.001548    545.14941    612.07574
  638.0      0.001567    545.08209    601.30145
  608.0      0.001645    545.01447    593.03888
  602.0      0.001661    544.94653    586.34821
  591.0      0.001692    544.87830    581.69415
  616.0      0.001623    544.80975    578.54266
  570.0      0.001754    544.74084    576.54083
  548.0      0.001825    544.67169    575.44141
  574.0      0.001742    544.60217    575.37329
  602.0      0.001661    544.53235    576.20996
  603.0      0.001658    544.46216    577.97119
  548.0      0.001825    544.39172    580.67450
  566.0      0.001767    544.32092    584.40601
  614.0      0.001629    544.24988    589.21545
  599.0      0.001669    544.17841    595.09058
  532.0      0.001880    544.10669    601.97522
  578.0      0.001730    544.03473    609.17523
  585.0      0.001709    543.96234    617.66010
  569.0      0.001757    543.88971    626.55463
  590.0      0.001695    543.81671    635.48981
  595.0      0.001681    543.74341    644.02673
  569.0      0.001757    543.66980    651.68243
  620.0      0.001613    543.59595    657.96851
  565.0      0.001770    543.52173    662.40283
  572.0      0.001748    543.44720    664.74023
  601.0      0.001664    543.37238    664.77905
  617.0      0.001621    543.29718    662.57513
  614.0      0.001629    543.22174    658.74200
  657.0      0.001522    543.14600    653.04553
  612.0      0.001634    543.06995    646.35651
  614.0      0.001629    542.99353    639.22162
  583.0      0.001715    542.91687    632.15247
  618.0      0.001618    542.83990    625.55469
  622.0      0.001608    542.76263    619.64459
  592.0      0.001689    542.68500    614.70514
  590.0      0.001695    542.60712    610.75580
  569.0      0.001757    542.52893    607.74622
  546.0      0.001832    542.45044    605.53735
  589.0      0.001698    542.37164    603.92511
  597.0      0.001675    542.29248    602.67938
  597.0      0.001675    542.21307    601.58063
  612.0      0.001634    542.13342    600.46539
  562.0      0.001779    542.05341    599.25415
  556.0      0.001799    541.97308    597.96240
  573.0      0.001745    541.89246    597.01263
  581.0      0.001721    541.81158    595.91852
  533.0      0.001876    541.73035    595.18597
  607.0      0.001647    541.64886    594.89716
  588.0      0.001701    541.56708    595.46704
  592.0      0.001689    541.48499    596.94019
  578.0      0.001730    541.40259    599.43811
  578.0      0.001730    541.31989    603.03326
  616.0      0.001623    541.23694    607.74121
  598.0      0.001672    541.15369    613.51672
  648.0      0.001543    541.07013    620.25366
  678.0      0.001475    540.98627    627.71283
  607.0      0.001647    540.90210    635.77002
  660.0      0.001515    540.81769    644.20996
  644.0      0.001553    540.73297    652.74512
  646.0      0.001548    540.64795    661.09937
  625.0      0.001600    540.56262    669.04877
  624.0      0.001603    540.47705    676.41675
  658.0      0.001520    540.39117    683.08545
  666.0      0.001502    540.30499    688.98566
  629.0      0.001590    540.21851    694.07086
  646.0      0.001548    540.13177    698.21753
  672.0      0.001488    540.04480    701.44458
  685.0      0.001460    539.95746    703.52917
  633.0      0.001580    539.86987    704.28442
  637.0      0.001570    539.78198    703.56915
  664.0      0.001506    539.69385    701.32355
  679.0      0.001473    539.60541    697.72675
  677.0      0.001477    539.51666    693.17377
  649.0      0.001541    539.42767    688.30609
  685.0      0.001460    539.33838    683.93469
  651.0      0.001536    539.24884    681.02222
  643.0      0.001555    539.15900    680.58838
  695.0      0.001439    539.06891    683.68323
  722.0      0.001385    538.97845    691.39447
  709.0      0.001410    538.88782    704.72681
  690.0      0.001449    538.79688    724.79474
  722.0      0.001385    538.70563    752.34283
  819.0      0.001221    538.61414    788.25018
  799.0      0.001252    538.52240    832.91510
  913.0      0.001095    538.43036    886.53381
  889.0      0.001125    538.33801    948.96741
  1022.0     0.000978    538.24542    1019.70020
  1178.0     0.000849    538.15259    1097.80383
  1343.0     0.000745    538.05945    1181.91626
  1432.0     0.000698    537.96606    1270.24280
  1623.0     0.000616    537.87238    1360.23657
  1640.0     0.000610    537.77850    1450.27490
  1764.0     0.000567    537.68427    1537.62720
  1813.0     0.000552    537.58984    1620.28174
  1917.0     0.000522    537.49506    1696.73657
  1975.0     0.000506    537.40009    1765.54065
  1981.0     0.000505    537.30481    1826.34253
  2202.0     0.000454    537.20935    1877.51599
  2096.0     0.000477    537.11359    1917.27612
  2087.0     0.000479    537.01752    1943.44336
  2173.0     0.000460    536.92120    1953.66943
  2037.0     0.000491    536.82465    1947.10828
  2011.0     0.000497    536.72784    1921.81421
  1884.0     0.000531    536.63074    1878.69177
  1759.0     0.000569    536.53339    1819.11707
  1674.0     0.000597    536.43579    1745.19470
  1648.0     0.000607    536.33795    1659.53394
  1427.0     0.000701    536.23987    1565.09277
  1321.0     0.000757    536.14148    1465.07080
  1333.0     0.000750    536.04285    1362.77551
  1209.0     0.000827    535.94397    1261.42627
  1161.0     0.000861    535.84485    1163.91821
  1013.0     0.000987    535.74548    1072.62817
  1031.0     0.000970    535.64587    989.48541
  918.0      0.001089    535.54596    915.22009
  878.0      0.001139    535.44586    850.51886
  905.0      0.001105    535.34552    796.09894
  828.0      0.001208    535.24487    750.17035
  802.0      0.001247    535.14404    712.77985
  762.0      0.001312    535.04291    683.49640
  751.0      0.001332    534.94159    660.69635
  762.0      0.001312    534.83997    643.90253
  783.0      0.001277    534.73816    632.36719
  714.0      0.001401    534.63605    625.70435
  691.0      0.001447    534.53369    623.02673
  716.0      0.001397    534.43115    624.28503
  693.0      0.001443    534.32837    629.36987
  717.0      0.001395    534.22534    638.29694
  747.0      0.001339    534.12201    651.16083
  710.0      0.001408    534.01849    668.07074
  720.0      0.001389    533.91473    689.07489
  749.0      0.001335    533.81073    714.19910
  754.0      0.001326    533.70654    742.92529
  793.0      0.001261    533.60205    774.80652
  789.0      0.001267    533.49744    808.98859
  742.0      0.001348    533.39246    844.29266
  796.0      0.001256    533.28729    879.31195
  828.0      0.001208    533.18188    912.35687
  843.0      0.001186    533.07629    941.56287
  819.0      0.001221    532.97046    965.36963
  921.0      0.001086    532.86438    982.29999
  966.0      0.001035    532.75812    991.56165
  944.0      0.001059    532.65155    993.17596
  942.0      0.001062    532.54486    988.01660
  950.0      0.001053    532.43787    977.64313
  920.0      0.001087    532.33069    964.02625
  961.0      0.001041    532.22327    949.25653
  988.0      0.001012    532.11560    935.30109
  992.0      0.001008    532.00775    923.83075
  998.0      0.001002    531.89966    915.96527
  1027.0     0.000974    531.79138    912.33936
  993.0      0.001007    531.68286    912.91479
  1023.0     0.000978    531.57416    917.06531
  955.0      0.001047    531.46515    923.62366
  1013.0     0.000987    531.35602    930.84985
  966.0      0.001035    531.24664    936.87836
  916.0      0.001092    531.13708    939.66272
  906.0      0.001104    531.02728    937.43384
  863.0      0.001159    530.91724    929.00299
  837.0      0.001195    530.80707    913.99591
  798.0      0.001253    530.69659    892.86279
  791.0      0.001264    530.58600    866.68195
  755.0      0.001325    530.47510    836.89954
  726.0      0.001377    530.36407    805.08673
  707.0      0.001414    530.25281    772.69556
  646.0      0.001548    530.14136    741.05573
  652.0      0.001534    530.02966    711.24951
  621.0      0.001610    529.91779    684.09448
  621.0      0.001610    529.80579    660.13562
  638.0      0.001567    529.69348    639.65649
  630.0      0.001587    529.58099    622.71100
  590.0      0.001695    529.46832    609.21454
  614.0      0.001629    529.35547    598.79706
  589.0      0.001698    529.24243    591.17139
  602.0      0.001661    529.12915    585.89020
  593.0      0.001686    529.01569    582.64276
  588.0      0.001701    528.90204    581.00653
  570.0      0.001754    528.78821    580.63892
  555.0      0.001802    528.67413    581.24023
  562.0      0.001779    528.55994    582.55518
  581.0      0.001721    528.44550    584.36975
  583.0      0.001715    528.33087    586.71246
  570.0      0.001754    528.21606    589.04761
  591.0      0.001692    528.10114    591.78284
  587.0      0.001704    527.98596    594.22809
  573.0      0.001745    527.87061    596.65570
  552.0      0.001812    527.75500    599.02350
  562.0      0.001779    527.63934    601.29962
  523.0      0.001912    527.52344    603.45001
  570.0      0.001754    527.40735    605.44373
  606.0      0.001650    527.29114    607.26251
  547.0      0.001828    527.17468    608.96368
  581.0      0.001721    527.05804    610.53485
  606.0      0.001650    526.94122    612.16919
  598.0      0.001672    526.82428    614.12115
  599.0      0.001669    526.70709    616.75696
  605.0      0.001653    526.58978    620.55042
  593.0      0.001686    526.47223    626.06873
  619.0      0.001616    526.35468    633.95142
  593.0      0.001686    526.23676    644.88263
  646.0      0.001548    526.11877    659.56085
  651.0      0.001536    526.00061    678.65234
  650.0      0.001538    525.88226    702.74097
  700.0      0.001429    525.76373    732.32715
  686.0      0.001458    525.64502    767.54077
  707.0      0.001414    525.52625    807.84436
  749.0      0.001335    525.40723    853.94586
  742.0      0.001348    525.28802    904.61505
  774.0      0.001292    525.16876    958.81787
  806.0      0.001241    525.04919    1015.19513
  873.0      0.001145    524.92957    1072.17468
  905.0      0.001105    524.80969    1128.01074
  909.0      0.001100    524.68982    1180.98328
  959.0      0.001043    524.56964    1229.07629
  1010.0     0.000990    524.44934    1272.38940
  1132.0     0.000883    524.32898    1310.75000
  1246.0     0.000803    524.20831    1345.33936
  1352.0     0.000740    524.08759    1378.33215
  1423.0     0.000703    523.96667    1413.17554
  1473.0     0.000679    523.84570    1452.67969
  1618.0     0.000618    523.72449    1499.06970
  1722.0     0.000581    523.60309    1554.35681
  1879.0     0.000532    523.48157    1618.53809
  1968.0     0.000508    523.35999    1690.47449
  1979.0     0.000505    523.23822    1767.61450
  2042.0     0.000490    523.11621    1846.11426
  2162.0     0.000463    522.99426    1921.11865
  2159.0     0.000463    522.87201    1987.20496
  2255.0     0.000443    522.74963    2038.97900
  2172.0     0.000460    522.62708    2071.76050
  2314.0     0.000432    522.50452    2082.24365
  2201.0     0.000454    522.38177    2068.94043
  2236.0     0.000447    522.25885    2032.28003
  2044.0     0.000489    522.13586    1974.37012
  2082.0     0.000480    522.01263    1898.54065
  1995.0     0.000501    521.88934    1808.78247
  1907.0     0.000524    521.76587    1709.36511
  1846.0     0.000542    521.64233    1604.48547
  1786.0     0.000560    521.51862    1498.05933
  1698.0     0.000589    521.39478    1393.53174
  1670.0     0.000599    521.27087    1293.67981
  1429.0     0.000700    521.14679    1200.50208
  1452.0     0.000689    521.02252    1115.17261
  1338.0     0.000747    520.89819    1038.16821
  1333.0     0.000750    520.77380    969.45325
  1158.0     0.000864    520.64917    908.69452
  997.0      0.001003    520.52441    855.42841
  986.0      0.001014    520.39960    809.15369
  898.0      0.001114    520.27472    769.36237
  865.0      0.001156    520.14960    735.54749
  851.0      0.001175    520.02441    707.21002
  734.0      0.001362    519.89917    683.86353
  762.0      0.001312    519.77374    665.03986
  692.0      0.001445    519.64819    650.34052
  662.0      0.001511    519.52252    638.86377
  662.0      0.001511    519.39685    630.90430
  653.0      0.001531    519.27100    625.64935
  626.0      0.001597    519.14496    622.72473
  650.0      0.001538    519.01898    621.38550
  640.0      0.001563    518.89276    621.32214
  633.0      0.001580    518.76642    622.00342
  672.0      0.001488    518.64001    622.97906
  618.0      0.001618    518.51355    623.86658
  681.0      0.001468    518.38690    624.37695
  654.0      0.001529    518.26019    624.33191
  646.0      0.001548    518.13348    623.66315
  658.0      0.001520    518.00653    622.40900
  660.0      0.001515    517.87952    621.23053
  694.0      0.001441    517.75238    619.32892
  657.0      0.001522    517.62524    617.43463
  646.0      0.001548    517.49792    615.87036
  665.0      0.001504    517.37048    615.08643
  709.0      0.001410    517.24298    615.05212
  758.0      0.001319    517.11548    616.15936
  729.0      0.001372    516.98779    618.63416
  728.0      0.001374    516.86005    622.69574
  714.0      0.001401    516.73224    628.57080
  755.0      0.001325    516.60431    636.51514
  791.0      0.001264    516.47626    647.27240
  751.0      0.001332    516.34808    660.30640
  787.0      0.001271    516.21997    676.43427
  836.0      0.001196    516.09174    696.03876
  907.0      0.001103    515.96332    719.47253
  902.0      0.001109    515.83496    747.01984
  940.0      0.001064    515.70642    778.85956
  904.0      0.001106    515.57782    815.02814
  914.0      0.001094    515.44910    855.34393
  968.0      0.001033    515.32043    899.34283
  961.0      0.001041    515.19159    946.18402
  961.0      0.001041    515.06268    994.55273
  1036.0     0.000965    514.93378    1042.69141
  1037.0     0.000964    514.80469    1088.40430
  1015.0     0.000985    514.67560    1129.12671
  964.0      0.001037    514.54639    1162.17859
  959.0      0.001043    514.41718    1185.01746
  960.0      0.001042    514.28784    1195.64246
  961.0      0.001041    514.15845    1193.04089
  961.0      0.001041    514.02899    1177.34961
  892.0      0.001121    513.89954    1149.89490
  889.0      0.001125    513.76990    1112.85620
  881.0      0.001135    513.64026    1068.87744
  857.0      0.001167    513.51062    1020.68427
  838.0      0.001193    513.38086    970.82440
  847.0      0.001181    513.25104    921.51062
  848.0      0.001179    513.12109    874.58417
  838.0      0.001193    512.99127    831.45166
  837.0      0.001195    512.86127    793.05121
  810.0      0.001235    512.73120    760.03461
  842.0      0.001188    512.60114    732.62054
  808.0      0.001238    512.47095    710.69226
  783.0      0.001277    512.34076    693.84784
  803.0      0.001245    512.21051    681.46704
  794.0      0.001259    512.08026    672.77740
  776.0      0.001289    511.94989    666.91821
  750.0      0.001333    511.81949    663.00970
  730.0      0.001370    511.68915    660.21387
  731.0      0.001368    511.55862    657.81989
  750.0      0.001333    511.42807    655.24933
  734.0      0.001362    511.29749    652.16479
  748.0      0.001337    511.16696    648.40863
  729.0      0.001372    511.03629    643.95087
  775.0      0.001290    510.90558    638.88428
  754.0      0.001326    510.77484    633.29810
  645.0      0.001550    510.64417    627.30249
  699.0      0.001431    510.51334    620.99335
  643.0      0.001555    510.38248    614.44965
  624.0      0.001603    510.25171    607.73486
  615.0      0.001626    510.12082    600.90857
  623.0      0.001605    509.98987    593.50995
  606.0      0.001650    509.85889    586.70776
  621.0      0.001610    509.72797    580.11633
  551.0      0.001815    509.59695    573.77856
  576.0      0.001736    509.46588    567.85126
  584.0      0.001712    509.33490    562.44000
  536.0      0.001866    509.20380    557.60986
  519.0      0.001927    509.07269    553.42017
  533.0      0.001876    508.94153    549.89966
  517.0      0.001934    508.81046    547.05548
  551.0      0.001815    508.67926    544.87018
  575.0      0.001739    508.54807    543.12054
  559.0      0.001789    508.41693    542.12793
  518.0      0.001931    508.28571    541.66449
  531.0      0.001883    508.15442    540.87823
  531.0      0.001883    508.02316    541.16028
  555.0      0.001802    507.89197    541.72784
  510.0      0.001961    507.76068    542.09375
  532.0      0.001880    507.62936    542.99298
  555.0      0.001802    507.49808    544.02930
  528.0      0.001894    507.36682    545.22205
  544.0      0.001838    507.23550    546.41345
  584.0      0.001712    507.10416    548.21539
  559.0      0.001789    506.97290    550.47491
  541.0      0.001848    506.84155    553.41711
  540.0      0.001852    506.71021    557.24915
  549.0      0.001821    506.57886    562.19122
  561.0      0.001783    506.44760    568.46716
  546.0      0.001832    506.31625    576.29779
  586.0      0.001706    506.18491    585.78290
  629.0      0.001590    506.05365    597.34760
  617.0      0.001621    505.92230    611.06390
  597.0      0.001675    505.79095    627.10614
  643.0      0.001555    505.65964    645.64630
  621.0      0.001610    505.52841    666.86200
  683.0      0.001464    505.39709    690.95184
  670.0      0.001493    505.26578    718.15619
  748.0      0.001337    505.13455    748.77991
  762.0      0.001312    505.00330    783.20972
  801.0      0.001248    504.87201    821.91302
  836.0      0.001196    504.74072    865.40161
  871.0      0.001148    504.60959    914.16962
  971.0      0.001030    504.47836    968.62262
  1060.0     0.000943    504.34714    1029.01379
  1087.0     0.000920    504.21594    1095.36914
  1224.0     0.000817    504.08487    1167.38733
  1339.0     0.000747    503.95370    1244.30249
  1426.0     0.000701    503.82257    1324.79834
  1569.0     0.000637    503.69156    1406.91174
  1621.0     0.000617    503.56046    1488.05212
  1703.0     0.000587    503.42938    1565.13794
  1841.0     0.000543    503.29834    1634.88416
  1849.0     0.000541    503.16742    1694.25037
  1887.0     0.000530    503.03641    1740.68689
  1960.0     0.000510    502.90549    1772.42249
  2045.0     0.000489    502.77463    1788.49219
  2065.0     0.000484    502.64374    1788.70874
  2038.0     0.000491    502.51285    1773.62573
  1933.0     0.000517    502.38205    1744.43152
  1923.0     0.000520    502.25134    1702.74487
  1889.0     0.000529    502.12057    1650.59436
  1800.0     0.000556    501.98981    1589.01758
  1719.0     0.000582    501.85922    1519.78711
  1584.0     0.000631    501.72861    1444.43164
  1465.0     0.000683    501.59796    1364.62939
  1341.0     0.000746    501.46738    1282.34912
  1219.0     0.000820    501.33694    1199.73193
  1100.0     0.000909    501.20648    1118.87012
  1032.0     0.000969    501.07602    1041.98804
  918.0      0.001089    500.94559    969.69696
  903.0      0.001107    500.81534    903.53528
  783.0      0.001277    500.68506    844.06799
  789.0      0.001267    500.55478    791.57135
  733.0      0.001364    500.42465    746.04840
  709.0      0.001410    500.29449    707.17566
  737.0      0.001357    500.16440    674.54242
  663.0      0.001508    500.03430    647.59119
  665.0      0.001504    499.90442    625.70026
  643.0      0.001555    499.77444    608.22699
  626.0      0.001597    499.64456    594.33942
  620.0      0.001613    499.51480    583.88867
  603.0      0.001658    499.38501    575.65521
  623.0      0.001605    499.25528    569.97516
  587.0      0.001704    499.12564    566.00763
  557.0      0.001795    498.99612    563.36285
  581.0      0.001721    498.86655    561.69666
  566.0      0.001767    498.73706    560.70404
  585.0      0.001709    498.60773    560.11554
  527.0      0.001898    498.47839    559.69934
  583.0      0.001715    498.34909    559.26923
  549.0      0.001821    498.21985    558.65479
  563.0      0.001776    498.09082    557.87689
  550.0      0.001818    497.96173    556.88715
  532.0      0.001880    497.83270    555.72369
  527.0      0.001898    497.70374    554.44818
  539.0      0.001855    497.57495    553.12531
  527.0      0.001898    497.44617    551.81281
  507.0      0.001972    497.31744    550.55420
  537.0      0.001862    497.18887    549.53259
  555.0      0.001802    497.06027    548.45648
  524.0      0.001908    496.93179    547.60413
  529.0      0.001890    496.80334    546.70673
  505.0      0.001980    496.67511    546.01819
  512.0      0.001953    496.54681    545.57550
  496.0      0.002016    496.41864    545.43628
  532.0      0.001880    496.29065    545.68018
  526.0      0.001901    496.16260    546.36841
  502.0      0.001992    496.03467    547.55859
  561.0      0.001783    495.90683    549.24908
  512.0      0.001953    495.77914    551.42865
  519.0      0.001927    495.65146    554.03040
  525.0      0.001905    495.52383    556.96002
  496.0      0.002016    495.39642    560.06122
  574.0      0.001742    495.26901    563.30804
  585.0      0.001709    495.14169    566.41064
  556.0      0.001799    495.01443    569.29712
  581.0      0.001721    494.88739    571.88361
  577.0      0.001733    494.76038    574.14911
  538.0      0.001859    494.63339    576.13513
  569.0      0.001757    494.50653    577.92096
  564.0      0.001773    494.37985    579.60474
  570.0      0.001754    494.25320    581.26984
  621.0      0.001610    494.12662    582.95911
  557.0      0.001795    494.00024    584.67523
  592.0      0.001689    493.87387    586.36279
  581.0      0.001721    493.74762    587.92175
  572.0      0.001748    493.62146    589.21313
  582.0      0.001718    493.49548    590.10583
  572.0      0.001748    493.36951    590.48566
  618.0      0.001618    493.24368    590.22650
  625.0      0.001600    493.11801    589.30420
  594.0      0.001684    492.99237    587.70056
  594.0      0.001684    492.86682    585.41187
  563.0      0.001776    492.74142    582.43036
  545.0      0.001835    492.61621    578.78491
  561.0      0.001783    492.49100    574.49310
  511.0      0.001957    492.36588    569.65820
  532.0      0.001880    492.24100    564.32245
  531.0      0.001883    492.11615    558.67493
  531.0      0.001883    491.99139    552.90662
  525.0      0.001905    491.86673    547.17847
  527.0      0.001898    491.74231    541.66437
  525.0      0.001905    491.61792    536.50116
  523.0      0.001912    491.49362    531.79663
  530.0      0.001887    491.36945    527.62958
  542.0      0.001845    491.24548    524.05402
  521.0      0.001919    491.12158    521.10254
  532.0      0.001880    490.99777    518.79395
  511.0      0.001957    490.87418    517.13885
  513.0      0.001949    490.75061    516.14825
  535.0      0.001869    490.62720    515.84351
  521.0      0.001919    490.50388    516.20758
  523.0      0.001912    490.38080    517.41937
  515.0      0.001942    490.25772    519.52332
  491.0      0.002037    490.13480    522.66278
  521.0      0.001919    490.01212    527.02557
  523.0      0.001912    489.88943    532.74078
  494.0      0.002024    489.76688    540.29889
  548.0      0.001825    489.64450    549.89893
  520.0      0.001923    489.52231    561.88611
  620.0      0.001613    489.40015    576.55310
  636.0      0.001572    489.27814    594.21338
  622.0      0.001608    489.15637    615.10510
  687.0      0.001456    489.03464    639.38312
  741.0      0.001350    488.91302    667.09052
  737.0      0.001357    488.79156    697.61554
  842.0      0.001188    488.67035    731.76550
  863.0      0.001159    488.54916    768.56433
  940.0      0.001064    488.42810    807.46112
  993.0      0.001007    488.30722    847.13129
  1055.0     0.000948    488.18652    887.54169
  1168.0     0.000856    488.06595    927.07556
  1285.0     0.000778    487.94547    964.45459
  1249.0     0.000801    487.82523    998.60303
  1333.0     0.000750    487.70502    1028.64832
  1358.0     0.000736    487.58499    1054.00940
  1410.0     0.000709    487.46509    1073.89026
  1373.0     0.000728    487.34546    1088.91028
  1442.0     0.000693    487.22586    1098.29724
  1356.0     0.000737    487.10641    1101.55652
  1327.0     0.000754    486.98718    1098.23230
  1239.0     0.000807    486.86807    1087.73132
  1213.0     0.000824    486.74905    1069.96143
  1174.0     0.000852    486.63025    1045.25708
  1032.0     0.000969    486.51163    1014.48877
  1031.0     0.000970    486.39310    978.93848
  917.0      0.001091    486.27472    940.14624
  906.0      0.001104    486.15659    899.57703
  792.0      0.001263    486.03854    858.75336
  827.0      0.001209    485.92065    818.87213
  748.0      0.001337    485.80289    781.03699
  711.0      0.001406    485.68539    746.18939
  721.0      0.001387    485.56796    714.67853
  731.0      0.001368    485.45071    687.03247
  709.0      0.001410    485.33359    663.52258
  700.0      0.001429    485.21674    644.25446
  666.0      0.001502    485.09995    629.44177
  702.0      0.001425    484.98337    618.88177
  690.0      0.001449    484.86700    612.67151
  651.0      0.001536    484.75070    610.74298
  683.0      0.001464    484.63458    612.96851
  681.0      0.001468    484.51865    619.14362
  706.0      0.001416    484.40295    628.96216
  703.0      0.001422    484.28732    642.00348
  702.0      0.001425    484.17188    657.75348
  730.0      0.001370    484.05670    675.49677
  684.0      0.001462    483.94159    694.39124
  633.0      0.001580    483.82666    713.45868
  683.0      0.001464    483.71191    731.61682
  708.0      0.001412    483.59741    747.72906
  689.0      0.001451    483.48300    760.69800
  679.0      0.001473    483.36874    769.58551
  720.0      0.001389    483.25479    773.74170
  673.0      0.001486    483.14090    772.90521
  679.0      0.001473    483.02719    767.22015
  686.0      0.001458    482.91367    757.27551
  643.0      0.001555    482.80038    743.88129
  638.0      0.001567    482.68723    728.01923
  678.0      0.001475    482.57422    710.69183
  667.0      0.001499    482.46143    692.82263
  621.0      0.001610    482.34888    675.18793
  630.0      0.001587    482.23642    658.38043
  664.0      0.001506    482.12415    642.79565
  622.0      0.001608    482.01215    628.63879
  665.0      0.001504    481.90024    615.94800
  596.0      0.001678    481.78854    604.63898
  603.0      0.001658    481.67700    594.56024
  593.0      0.001686    481.56577    585.55438
  605.0      0.001653    481.45459    577.49872
  555.0      0.001802    481.34360    570.28467
  565.0      0.001770    481.23291    563.97205
  539.0      0.001855    481.12234    558.52551
  584.0      0.001712    481.01193    553.95673
  551.0      0.001815    480.90170    550.29114
  509.0      0.001965    480.79178    547.52069
  532.0      0.001880    480.68195    545.62006
  541.0      0.001848    480.57233    544.53381
  534.0      0.001873    480.46295    544.17157
  538.0      0.001859    480.35370    544.40747
  510.0      0.001961    480.24466    545.08685
  523.0      0.001912    480.13577    546.00592
  523.0      0.001912    480.02719    547.12085
  553.0      0.001808    479.91873    548.09515
  477.0      0.002096    479.81046    548.91229
  525.0      0.001905    479.70239    549.45709
  454.0      0.002203    479.59457    549.65680
  456.0      0.002193    479.48691    549.44812
  479.0      0.002088    479.37943    548.77130
  498.0      0.002008    479.27225    547.55048
  495.0      0.002020    479.16516    545.77747
  478.0      0.002092    479.05826    543.46521
  474.0      0.002110    478.95160    540.64319
  486.0      0.002058    478.84521    537.40265
  485.0      0.002062    478.73895    533.86444
  526.0      0.001901    478.63287    530.19458
  486.0      0.002058    478.52710    526.45782
  509.0      0.001965    478.42145    522.77417
  499.0      0.002004    478.31598    519.23059
  515.0      0.001942    478.21072    515.89923
  489.0      0.002045    478.10577    512.83240
  469.0      0.002132    478.00098    510.08163
  516.0      0.001938    477.89633    507.65231
  478.0      0.002092    477.79199    505.61685
  517.0      0.001934    477.68777    503.91003
  513.0      0.001949    477.58380    502.57544
  484.0      0.002066    477.48001    501.61032
  521.0      0.001919    477.37653    501.00348
  483.0      0.002070    477.27316    500.73422
  497.0      0.002012    477.17001    500.77484
  527.0      0.001898    477.06708    501.07147
  512.0      0.001953    476.96442    501.64624
  460.0      0.002174    476.86191    502.28238
  508.0      0.001969    476.75961    502.97534
  495.0      0.002020    476.65762    503.64142
  499.0      0.002004    476.55576    504.19604
  496.0      0.002016    476.45410    504.56296
  470.0      0.002128    476.35266    504.68481
  498.0      0.002008    476.25153    504.61768
  482.0      0.002075    476.15051    504.19073
  447.0      0.002237    476.04974    503.56305
  522.0      0.001916    475.94925    502.77582
  446.0      0.002242    475.84894    501.93140
  493.0      0.002028    475.74878    501.12939
  459.0      0.002179    475.64890    500.46906
  451.0      0.002217    475.54929    500.04208
  496.0      0.002016    475.44983    499.92807
  498.0      0.002008    475.35059    499.89142
  459.0      0.002179    475.25165    500.58307
  481.0      0.002079    475.15283    501.72406
  467.0      0.002141    475.05429    503.32108
  505.0      0.001980    474.95593    505.36258
  508.0      0.001969    474.85788    507.82104
  501.0      0.001996    474.75998    510.65726
  492.0      0.002033    474.66232    513.82434
  517.0      0.001934    474.56488    517.27423
  496.0      0.002016    474.46771    520.56866
  561.0      0.001783    474.37073    524.47314
  531.0      0.001883    474.27396    528.58167
  493.0      0.002028    474.17749    532.92212
  533.0      0.001876    474.08118    537.53613
  555.0      0.001802    473.98508    542.63708
  562.0      0.001779    473.88925    548.22980
  537.0      0.001862    473.79370    554.49023
  529.0      0.001890    473.69830    561.53406
  574.0      0.001742    473.60312    569.44733
  537.0      0.001862    473.50827    578.27563
  545.0      0.001835    473.41357    588.02142
  557.0      0.001795    473.31909    598.61230
  576.0      0.001736    473.22485    610.06049
  572.0      0.001748    473.13092    622.26678
  570.0      0.001754    473.03717    635.18756
  582.0      0.001718    472.94363    648.80200
  632.0      0.001582    472.85040    663.10309
  647.0      0.001546    472.75732    678.09045
  696.0      0.001437    472.66449    693.68500
  709.0      0.001410    472.57190    709.82635
  701.0      0.001427    472.47958    726.44019
  705.0      0.001418    472.38745    743.40601
  721.0      0.001387    472.29559    760.70520
  751.0      0.001332    472.20392    778.35291
  850.0      0.001176    472.11258    796.39209
  827.0      0.001209    472.02139    814.83167
  884.0      0.001131    471.93045    833.57593
  905.0      0.001105    471.83981    852.37213
  905.0      0.001105    471.74936    870.63348
  952.0      0.001050    471.65912    888.07349
  992.0      0.001008    471.56915    903.78589
  948.0      0.001055    471.47946    916.81635
  988.0      0.001012    471.38998    926.51996
  988.0      0.001012    471.30069    931.97754
  935.0      0.001070    471.21176    932.48419
  955.0      0.001047    471.12296    927.62231
  961.0      0.001041    471.03442    917.22748
  938.0      0.001066    470.94614    901.40497
  889.0      0.001125    470.85815    880.52124
  865.0      0.001156    470.77032    855.19666
  846.0      0.001182    470.68277    826.29114
  823.0      0.001215    470.59552    794.84772
  820.0      0.001220    470.50842    762.00574
  769.0      0.001300    470.42160    728.81342
  702.0      0.001425    470.33502    696.84894
  675.0      0.001481    470.24875    665.98108
  651.0      0.001536    470.16263    637.31366
  637.0      0.001570    470.07678    611.27222
  656.0      0.001524    469.99118    588.12445
  549.0      0.001821    469.90588    567.96338
  578.0      0.001730    469.82077    550.74231
  559.0      0.001789    469.73590    536.30493
  595.0      0.001681    469.65134    524.41650
  592.0      0.001689    469.56699    514.79327
  518.0      0.001931    469.48285    507.12964
  511.0      0.001957    469.39896    501.12097
  515.0      0.001942    469.31540    496.88324
  490.0      0.002041    469.23203    493.35895
  530.0      0.001887    469.14890    490.72641
  484.0      0.002066    469.06607    488.80701
  505.0      0.001980    468.98343    487.46384
  477.0      0.002096    468.90106    486.59924
  473.0      0.002114    468.81894    486.15332
  522.0      0.001916    468.73712    486.09897
  490.0      0.002041    468.65549    486.43909
  508.0      0.001969    468.57413    487.21716
  477.0      0.002096    468.49307    488.45435
  479.0      0.002088    468.41217    490.22836
  468.0      0.002137    468.33154    492.62061
  501.0      0.001996    468.25119    495.69366
  509.0      0.001965    468.17114    499.52127
  479.0      0.002088    468.09128    504.15295
  464.0      0.002155    468.01166    509.64822
  558.0      0.001792    467.93231    515.91711
  518.0      0.001931    467.85327    522.93726
  484.0      0.002066    467.77441    530.59894
  508.0      0.001969    467.69580    538.74249
  473.0      0.002114    467.61752    547.15924
  520.0      0.001923    467.53946    555.59900
  526.0      0.001901    467.46161    563.77930
  502.0      0.001992    467.38403    571.40302
  523.0      0.001912    467.30676    578.18622
  562.0      0.001779    467.22971    583.89539
  557.0      0.001795    467.15289    588.39746
  531.0      0.001883    467.07642    591.74677
  565.0      0.001770    467.00009    594.00732
  574.0      0.001742    466.92407    595.51373
  549.0      0.001821    466.84827    596.63226
  574.0      0.001742    466.77280    597.74030
  560.0      0.001786    466.69754    599.18335
  623.0      0.001605    466.62253    601.23669
  578.0      0.001730    466.54782    604.08368
  611.0      0.001637    466.47333    607.80377
  595.0      0.001681    466.39908    612.37262
  637.0      0.001570    466.32510    617.66901
  641.0      0.001560    466.25143    623.50226
  610.0      0.001639    466.17795    629.63910
  642.0      0.001558    466.10474    635.86450
  624.0      0.001603    466.03180    642.01422
  665.0      0.001504    465.95917    647.99396
  662.0      0.001511    465.88672    653.77704
  679.0      0.001473    465.81454    659.37567
  692.0      0.001445    465.74268    664.83215
  707.0      0.001414    465.67105    670.19568
  734.0      0.001362    465.59964    675.53314
  731.0      0.001368    465.52850    680.88843
  709.0      0.001410    465.45767    686.42206
  689.0      0.001451    465.38708    692.14001
  713.0      0.001403    465.31671    698.01343
  713.0      0.001403    465.24667    703.90753
  765.0      0.001307    465.17682    709.57294
  751.0      0.001332    465.10727    714.66937
  726.0      0.001377    465.03796    718.81140
  720.0      0.001389    464.96896    721.62616
  716.0      0.001397    464.90015    722.80786
  736.0      0.001359    464.83163    722.08228
  735.0      0.001361    464.76343    719.27020
  687.0      0.001456    464.69540    714.22015
  708.0      0.001412    464.62766    706.84229
  702.0      0.001425    464.56018    697.12115
  659.0      0.001517    464.49301    685.21777
  659.0      0.001517    464.42606    671.42859
  623.0      0.001605    464.35934    656.21442
  629.0      0.001590    464.29294    640.15601
  615.0      0.001626    464.22681    623.82233
  577.0      0.001733    464.16089    607.81213
  633.0      0.001580    464.09525    592.64777
  631.0      0.001585    464.02991    578.78912
  639.0      0.001565    463.96478    566.54456
  585.0      0.001709    463.89993    556.17999
  593.0      0.001686    463.83533    547.86627
  575.0      0.001739    463.77103    541.60339
  577.0      0.001733    463.70697    537.37219
  547.0      0.001828    463.64316    535.04633
  585.0      0.001709    463.57968    534.43500
  584.0      0.001712    463.51639    535.26617
  548.0      0.001825    463.45337    537.28424
  583.0      0.001715    463.39063    540.08209
  580.0      0.001724    463.32816    543.34467
  605.0      0.001653    463.26593    546.74475
  571.0      0.001751    463.20398    549.90637
  516.0      0.001938    463.14233    552.60144
  562.0      0.001779    463.08087    554.61267
  575.0      0.001739    463.01971    555.84686
  540.0      0.001852    462.95880    556.32208
  536.0      0.001866    462.89819    556.17706
  563.0      0.001776    462.83783    555.55170
  549.0      0.001821    462.77768    554.67072
  560.0      0.001786    462.71783    553.72827
  558.0      0.001792    462.65829    552.88336
  586.0      0.001706    462.59897    552.25146
  563.0      0.001776    462.53989    551.84717
  567.0      0.001764    462.48114    551.75110
  597.0      0.001675    462.42261    551.88983
  579.0      0.001727    462.36435    552.19989
  518.0      0.001931    462.30634    552.61383
  588.0      0.001701    462.24863    553.08551
  600.0      0.001667    462.19116    553.61407
  593.0      0.001686    462.13394    554.24957
  636.0      0.001572    462.07703    555.16852
  628.0      0.001592    462.02036    556.52069
  597.0      0.001675    461.96393    558.77734
  662.0      0.001511    461.90778    562.26245
  695.0      0.001439    461.85193    567.46088
  698.0      0.001433    461.79630    575.09888
  736.0      0.001359    461.74094    585.37451
  749.0      0.001335    461.68588    599.04340
  752.0      0.001330    461.63101    616.76172
  799.0      0.001252    461.57645    639.05585
  874.0      0.001144    461.52216    666.37573
  903.0      0.001107    461.46814    699.13263
  861.0      0.001161    461.41437    737.48578
  932.0      0.001073    461.36084    781.28381
  982.0      0.001018    461.30759    830.50336
  987.0      0.001013    461.25464    884.42017
  1025.0     0.000976    461.20190    942.19110
  1138.0     0.000879    461.14944    1002.74377
  1107.0     0.000903    461.09729    1064.11414
  1175.0     0.000851    461.04535    1124.89246
  1208.0     0.000828    460.99368    1182.95630
  1227.0     0.000815    460.94226    1236.23608
  1257.0     0.000796    460.89117    1282.81323
  1317.0     0.000759    460.84027    1321.20056
  1347.0     0.000742    460.78967    1350.60266
  1401.0     0.000714    460.73935    1371.03296
  1463.0     0.000684    460.68927    1383.26563
  1454.0     0.000688    460.63943    1388.34534
  1346.0     0.000743    460.58987    1387.54578
  1373.0     0.000728    460.54062    1381.87952
  1454.0     0.000688    460.49158    1371.96838
  1344.0     0.000744    460.44281    1357.96899
  1329.0     0.000752    460.39432    1339.60938
  1331.0     0.000751    460.34610    1316.32056
  1264.0     0.000791    460.29810    1287.47339
  1257.0     0.000796    460.25037    1252.67749
  1165.0     0.000858    460.20294    1212.02893
  1160.0     0.000862    460.15576    1166.21143
  1115.0     0.000897    460.10883    1116.41553
  1097.0     0.000912    460.06213    1064.13416
  978.0      0.001022    460.01578    1010.93878
  948.0      0.001055    459.96964    958.31793
  871.0      0.001148    459.92374    907.57385
  832.0      0.001202    459.87817    859.77637
  816.0      0.001225    459.83279    815.74274
  769.0      0.001300    459.78772    776.03314
  750.0      0.001333    459.74286    740.95679
  672.0      0.001488    459.69833    710.58551
  660.0      0.001515    459.65399    684.77783
  618.0      0.001618    459.60995    663.21832
  608.0      0.001645    459.56619    645.46411
  621.0      0.001610    459.52267    631.00391
  604.0      0.001656    459.47940    619.31635
  589.0      0.001698    459.43640    609.91528
  552.0      0.001812    459.39368    602.37616
  585.0      0.001709    459.35120    596.33569
  544.0      0.001838    459.30896    591.47760
  528.0      0.001894    459.26703    587.51270
  557.0      0.001795    459.22531    584.16309
  530.0      0.001887    459.18387    581.15320
  558.0      0.001792    459.14267    578.20972
  565.0      0.001770    459.10178    575.06885
  510.0      0.001961    459.06113    571.43414
  541.0      0.001848    459.02072    567.26599
  554.0      0.001805    458.98056    562.41223
  474.0      0.002110    458.94070    556.88287
  534.0      0.001873    458.90109    550.77283
  520.0      0.001923    458.86172    544.27661
  519.0      0.001927    458.82263    537.49646
  509.0      0.001965    458.78378    530.65961
  469.0      0.002132    458.74521    523.94318
  533.0      0.001876    458.70685    517.50293
  492.0      0.002033    458.66879    511.46683
  524.0      0.001908    458.63098    505.93649
  514.0      0.001946    458.59341    500.98352
  509.0      0.001965    458.55615    496.65442
  524.0      0.001908    458.51910    492.92569
  483.0      0.002070    458.48230    489.89801
  471.0      0.002123    458.44577    487.50775
  446.0      0.002242    458.40955    485.74628
  500.0      0.002000    458.37350    484.59192
  484.0      0.002066    458.33774    484.10730
  462.0      0.002165    458.30225    484.03003
  497.0      0.002012    458.26703    484.54013
  470.0      0.002128    458.23203    485.41519
  479.0      0.002088    458.19727    486.71561
  499.0      0.002004    458.16281    488.41110
  528.0      0.001894    458.12860    490.47379
  482.0      0.002075    458.09464    492.87717
  531.0      0.001883    458.06091    495.69797
  463.0      0.002160    458.02747    498.71466
  503.0      0.001988    457.99426    502.01038
  481.0      0.002079    457.96130    505.50400
  464.0      0.002155    457.92865    509.35275
  487.0      0.002053    457.89618    513.50543
  464.0      0.002155    457.86401    518.00055
  500.0      0.002000    457.83206    522.88342
  483.0      0.002070    457.80038    528.19714
  505.0      0.001980    457.76895    533.87024
  484.0      0.002066    457.73779    540.07318
  546.0      0.001832    457.70688    546.85107
  523.0      0.001912    457.67621    553.81757
  504.0      0.001984    457.64578    561.04907
  537.0      0.001862    457.61563    568.46619
  579.0      0.001727    457.58572    575.90460
  514.0      0.001946    457.55606    583.25482
  570.0      0.001754    457.52661    590.37140
  574.0      0.001742    457.49747    597.09900
  595.0      0.001681    457.46857    603.28003
  595.0      0.001681    457.43991    608.75983
  563.0      0.001776    457.41150    613.39362
  638.0      0.001567    457.38333    617.05457
  618.0      0.001618    457.35544    619.62024
  567.0      0.001764    457.32776    620.99664
  597.0      0.001675    457.30032    621.11194
  614.0      0.001629    457.27319    619.93231
  589.0      0.001698    457.24628    617.48376
  646.0      0.001548    457.21960    613.86432
  565.0      0.001770    457.19321    609.24695
  615.0      0.001626    457.16702    603.95978
  614.0      0.001629    457.14111    598.09717
  636.0      0.001572    457.11542    592.00995
  629.0      0.001590    457.09000    586.08582
  620.0      0.001613    457.06482    580.59033
  593.0      0.001686    457.03989    575.83984
  628.0      0.001592    457.01520    572.13873
  646.0      0.001548    456.99075    569.82544
  576.0      0.001736    456.96655    569.23987
  614.0      0.001629    456.94260    570.71191
  607.0      0.001647    456.91891    574.54205
  614.0      0.001629    456.89542    580.98364
  616.0      0.001623    456.87219    590.20172
  615.0      0.001626    456.84924    602.27850
  608.0      0.001645    456.82651    617.18213
  643.0      0.001555    456.80402    634.71423
  656.0      0.001524    456.78174    654.60614
  671.0      0.001490    456.75977    676.38977
  645.0      0.001550    456.73801    699.58557
  689.0      0.001451    456.71649    723.26074
  722.0      0.001385    456.69519    746.76093
  705.0      0.001418    456.67416    769.21686
  732.0      0.001366    456.65338    789.78448
  735.0      0.001361    456.63281    807.71368
  757.0      0.001321    456.61252    822.44800
  733.0      0.001364    456.59244    833.74481
  742.0      0.001348    456.57263    841.58936
  766.0      0.001305    456.55301    846.32434
  793.0      0.001261    456.53366    848.43323
  741.0      0.001350    456.51456    848.42053
  775.0      0.001290    456.49570    846.71600
  807.0      0.001239    456.47705    843.57947
  754.0      0.001326    456.45865    839.15021
  805.0      0.001242    456.44046    833.33942
  742.0      0.001348    456.42255    825.95471
  806.0      0.001241    456.40488    816.76526
  782.0      0.001279    456.38742    805.60071
  847.0      0.001181    456.37018    792.43536
  833.0      0.001200    456.35321    777.41907
  783.0      0.001277    456.33649    760.84369
  755.0      0.001325    456.31998    743.09558
  723.0      0.001383    456.30368    725.00122
  721.0      0.001387    456.28766    705.47412
  719.0      0.001391    456.27185    686.20612
  693.0      0.001443    456.25629    666.94867
  683.0      0.001464    456.24094    647.92694
  695.0      0.001439    456.22583    629.33380
  672.0      0.001488    456.21097    611.37903
  610.0      0.001639    456.19632    594.27203
  600.0      0.001667    456.18192    578.20227
  602.0      0.001661    456.16772    563.32214
  643.0      0.001555    456.15378    549.73627
  650.0      0.001538    456.14008    537.49933
  575.0      0.001739    456.12659    526.62164
  558.0      0.001792    456.11331    516.67633
  552.0      0.001812    456.10031    508.41620
  534.0      0.001873    456.08749    501.35754
  553.0      0.001808    456.07495    495.40918
  550.0      0.001818    456.06259    490.48383
  526.0      0.001901    456.05048    486.44775
  498.0      0.002008    456.03857    483.24350
  505.0      0.001980    456.02695    480.92932
  498.0      0.002008    456.01550    479.01303
  490.0      0.002041    456.00430    477.59006
  499.0      0.002004    455.99332    476.63843
  495.0      0.002020    455.98257    476.09436
  493.0      0.002028    455.97202    475.92300
  474.0      0.002110    455.96173    476.10156
  477.0      0.002096    455.95163    476.64127
  480.0      0.002083    455.94177    477.55020
  524.0      0.001908    455.93213    478.87207
  478.0      0.002092    455.92273    480.57343
  493.0      0.002028    455.91354    482.79114
  477.0      0.002096    455.90457    485.58478
  479.0      0.002088    455.89584    488.91281
  478.0      0.002092    455.88730    492.85535
  540.0      0.001852    455.87900    497.46402
  469.0      0.002132    455.87091    502.77954
  518.0      0.001931    455.86307    508.84210
  467.0      0.002141    455.85541    515.68872
  526.0      0.001901    455.84796    523.36749
  510.0      0.001961    455.84076    531.93634
  509.0      0.001965    455.83380    541.42010
  513.0      0.001949    455.82700    552.01031
  513.0      0.001949    455.82043    563.77802
  545.0      0.001835    455.81412    576.87286
  566.0      0.001767    455.80798    591.49011
  588.0      0.001701    455.80209    607.84143
  630.0      0.001587    455.79639    626.18066
  600.0      0.001667    455.79089    646.74854
  688.0      0.001453    455.78564    669.83771
  631.0      0.001585    455.78061    695.30280
  667.0      0.001499    455.77576    723.26416
  728.0      0.001374    455.77112    753.22998
  757.0      0.001321    455.76672    784.89978
  801.0      0.001248    455.76251    817.33575
  845.0      0.001183    455.75851    849.70361
  828.0      0.001208    455.75476    880.89343
  946.0      0.001057    455.75119    909.68732
  982.0      0.001018    455.74783    934.87103
  951.0      0.001052    455.74466    955.37152
  951.0      0.001052    455.74173    970.41010
  968.0      0.001033    455.73901    979.61688
  979.0      0.001021    455.73648    983.07367
  1052.0     0.000951    455.73416    981.25970
  939.0      0.001065    455.73203    974.93793
  977.0      0.001024    455.73013    965.03094
  976.0      0.001025    455.72842    952.54242
  977.0      0.001024    455.72693    938.41937
  949.0      0.001054    455.72565    923.63507
  951.0      0.001052    455.72455    909.07135
  948.0      0.001055    455.72366    895.46777
  881.0      0.001135    455.72299    883.34052
  846.0      0.001182    455.72250    872.97534
  850.0      0.001176    455.72223    864.35699
  845.0      0.001183    455.72214    857.10205
  826.0      0.001211    455.72226    850.68054
  779.0      0.001284    455.72260    844.43439
  784.0      0.001276    455.72311    837.42804
  744.0      0.001344    455.72385    829.00641
  792.0      0.001263    455.72476    818.64764
  747.0      0.001339    455.72586    806.10895
  750.0      0.001333    455.72717    791.54016
  713.0      0.001403    455.72870    775.38770
  720.0      0.001389    455.73041    758.17279
  722.0      0.001385    455.73230    740.65009
  723.0      0.001383    455.73441    723.59277
  673.0      0.001486    455.73669    707.65826
  638.0      0.001567    455.73920    693.39343
  636.0      0.001572    455.74185    681.18848
  659.0      0.001517    455.74472    671.33276
  613.0      0.001631    455.74777    663.86584
  611.0      0.001637    455.75104    658.67151
  636.0      0.001572    455.75449    655.49634
  618.0      0.001618    455.75812    653.89294
  652.0      0.001534    455.76193    653.44263
  678.0      0.001475    455.76596    653.55725
  696.0      0.001437    455.77014    653.71490
  755.0      0.001325    455.77454    653.49146
  708.0      0.001412    455.77911    652.60626
  747.0      0.001339    455.78387    650.98090
  747.0      0.001339    455.78882    648.74493
  809.0      0.001236    455.79395    646.12769
  837.0      0.001195    455.79926    643.50079
  823.0      0.001215    455.80478    641.23016
  818.0      0.001222    455.81046    639.72375
  858.0      0.001166    455.81631    639.26569
  800.0      0.001250    455.82233    640.06921
  843.0      0.001186    455.82858    642.45807
  827.0      0.001209    455.83499    645.96002
  807.0      0.001239    455.84155    650.64691
  773.0      0.001294    455.84833    656.25458
  802.0      0.001247    455.85529    662.42554
  787.0      0.001271    455.86240    668.73785
  841.0      0.001189    455.86969    674.74841
  738.0      0.001355    455.87717    680.05115
  718.0      0.001393    455.88480    684.39722
  663.0      0.001508    455.89264    687.57739
  720.0      0.001389    455.90063    689.75836
  672.0      0.001488    455.90878    691.29352
  676.0      0.001479    455.91714    692.78479
  701.0      0.001427    455.92566    694.95892
  707.0      0.001414    455.93436    698.46313
  678.0      0.001475    455.94321    704.57019
  676.0      0.001479    455.95221    713.96667
  727.0      0.001376    455.96143    727.48486
  746.0      0.001340    455.97079    745.82721
  755.0      0.001325    455.98032    769.50024
  796.0      0.001256    455.99002    798.73657
  808.0      0.001238    455.99988    833.48401
  912.0      0.001096    456.00992    873.14423
  940.0      0.001064    456.02011    916.87207
  954.0      0.001048    456.03046    963.46851
  1049.0     0.000953    456.04099    1011.07001
  1129.0     0.000886    456.05167    1057.65576
  1114.0     0.000898    456.06250    1101.31494
  1183.0     0.000845    456.07349    1139.43298
  1150.0     0.000870    456.08469    1169.81628
  1205.0     0.000830    456.09598    1190.53247
  1202.0     0.000832    456.10748    1200.27673
  1264.0     0.000791    456.11911    1198.63159
  1290.0     0.000775    456.13089    1186.18140
  1198.0     0.000835    456.14285    1164.40588
  1203.0     0.000831    456.15497    1135.43079
  1184.0     0.000845    456.16721    1101.83167
  1121.0     0.000892    456.17963    1066.14648
  1073.0     0.000932    456.19220    1030.79712
  1069.0     0.000935    456.20490    997.89771
  1026.0     0.000975    456.21777    969.15356
  949.0      0.001054    456.23077    945.76385
  970.0      0.001031    456.24396    928.48633
  930.0      0.001075    456.25726    917.34576
  986.0      0.001014    456.27072    912.11768
  937.0      0.001067    456.28433    911.82123
  975.0      0.001026    456.29810    915.31232
  958.0      0.001044    456.31201    921.08099
  932.0      0.001073    456.32602    927.51746
  949.0      0.001054    456.34021    932.81354
  1033.0     0.000968    456.35455    935.51062
  952.0      0.001050    456.36902    934.44342
  992.0      0.001008    456.38364    928.94904
  969.0      0.001032    456.39838    918.89606
  969.0      0.001032    456.41327    904.62817
  906.0      0.001104    456.42825    886.96735
  938.0      0.001066    456.44345    866.51312
  904.0      0.001106    456.45874    844.32861
  862.0      0.001160    456.47415    821.31146
  820.0      0.001220    456.48972    798.28015
  825.0      0.001212    456.50543    775.97449
  807.0      0.001239    456.52127    754.97833
  784.0      0.001276    456.53723    735.85260
  765.0      0.001307    456.55331    719.13391
  725.0      0.001379    456.56955    705.15924
  709.0      0.001410    456.58588    694.39954
  674.0      0.001484    456.60236    687.24164
  727.0      0.001376    456.61896    684.03882
  757.0      0.001321    456.63568    684.99414
  718.0      0.001393    456.65253    690.27045
  742.0      0.001348    456.66949    699.85541
  765.0      0.001307    456.68658    713.58496
  880.0      0.001136    456.70383    731.10687
  814.0      0.001229    456.72116    751.86865
  863.0      0.001159    456.73862    775.11420
  903.0      0.001107    456.75620    799.88739
  937.0      0.001067    456.77386    825.05359
  1002.0     0.000998    456.79169    849.29962
  1012.0     0.000988    456.80960    871.36456
  1022.0     0.000978    456.82764    889.86157
  1068.0     0.000936    456.84576    903.59021
  1093.0     0.000915    456.86404    911.59412
  1088.0     0.000919    456.88242    913.27789
  1024.0     0.000977    456.90088    908.47833
  1087.0     0.000920    456.91946    897.48596
  1016.0     0.000984    456.93820    881.00848
  1024.0     0.000977    456.95700    860.08014
  1003.0     0.000997    456.97589    835.95331
  949.0      0.001054    456.99490    809.96069
  933.0      0.001072    457.01401    783.39880
  893.0      0.001120    457.03323    757.36096
  854.0      0.001171    457.05255    733.13550
  871.0      0.001148    457.07196    711.28424
  818.0      0.001222    457.09149    692.69543
  793.0      0.001261    457.11108    677.58527
  767.0      0.001304    457.13080    666.12360
  716.0      0.001397    457.15057    658.26465
  744.0      0.001344    457.17050    653.78961
  702.0      0.001425    457.19049    652.24298
  642.0      0.001558    457.21054    653.36774
  659.0      0.001517    457.23071    656.53082
  664.0      0.001506    457.25095    661.15259
  708.0      0.001412    457.27133    666.62189
  690.0      0.001449    457.29175    672.32062
  650.0      0.001538    457.31226    677.65106
  620.0      0.001613    457.33286    682.07349
  618.0      0.001618    457.35355    685.13605
  637.0      0.001570    457.37433    686.52704
  674.0      0.001484    457.39514    686.06335
  636.0      0.001572    457.41608    683.70233
  653.0      0.001531    457.43710    679.36371
  545.0      0.001835    457.45816    673.55334
  626.0      0.001597    457.47931    666.30823
  556.0      0.001799    457.50055    657.96216
  554.0      0.001805    457.52185    648.87115
  597.0      0.001675    457.54321    639.35803
  606.0      0.001650    457.56464    630.02167
  603.0      0.001658    457.58615    621.12524
  572.0      0.001748    457.60776    613.26770
  590.0      0.001695    457.62939    606.92212
  605.0      0.001653    457.65109    602.52148
  591.0      0.001692    457.67285    600.45605
  616.0      0.001623    457.69470    601.03851
  637.0      0.001570    457.71658    604.61438
  618.0      0.001618    457.73853    611.11493
  684.0      0.001462    457.76053    620.69153
  662.0      0.001511    457.78259    633.27887
  637.0      0.001570    457.80472    648.69141
  650.0      0.001538    457.82690    666.52710
  601.0      0.001664    457.84912    686.53937
  596.0      0.001678    457.87140    708.07520
  618.0      0.001618    457.89374    730.45703
  649.0      0.001541    457.91611    752.97375
  659.0      0.001517    457.93851    774.82166
  652.0      0.001534    457.96097    794.80737
  641.0      0.001560    457.98349    812.17578
  671.0      0.001490    458.00604    826.03601
  696.0      0.001437    458.02863    835.64777
  741.0      0.001350    458.05124    840.54449
  770.0      0.001299    458.07391    840.61603
  759.0      0.001318    458.09662    836.11115
  799.0      0.001252    458.11935    827.62793
  847.0      0.001181    458.14212    815.98132
  870.0      0.001149    458.16495    802.13129
  837.0      0.001195    458.18774    787.05505
  855.0      0.001170    458.21060    771.71600
  849.0      0.001178    458.23349    757.02643
  914.0      0.001094    458.25641    743.72961
  882.0      0.001134    458.27933    732.79071
  826.0      0.001211    458.30228    724.74628
  927.0      0.001079    458.32526    720.08484
  875.0      0.001143    458.34824    719.10956
  839.0      0.001192    458.37128    721.91302
  894.0      0.001119    458.39429    728.36688
  825.0      0.001212    458.41733    738.09576
  742.0      0.001348    458.44037    750.61060
  841.0      0.001189    458.46344    765.15674
  796.0      0.001256    458.48651    780.87006
  775.0      0.001290    458.50958    796.85901
  776.0      0.001289    458.53265    812.03357
  805.0      0.001242    458.55576    825.52460
  746.0      0.001340    458.57883    836.52582
  767.0      0.001304    458.60193    844.41962
  787.0      0.001271    458.62500    848.83533
  752.0      0.001330    458.64810    849.68933
  749.0      0.001335    458.67117    847.20087
  790.0      0.001266    458.69424    841.87347
  776.0      0.001289    458.71729    834.46436
  752.0      0.001330    458.74036    825.77869
  802.0      0.001247    458.76340    816.34906
  746.0      0.001340    458.78641    807.96313
  772.0      0.001295    458.80942    800.92969
  853.0      0.001172    458.83243    795.86652
  766.0      0.001305    458.85538    793.20789
  735.0      0.001361    458.87836    793.19147
  767.0      0.001304    458.90128    795.85217
  833.0      0.001200    458.92416    801.02759
  812.0      0.001232    458.94705    808.37091
  821.0      0.001218    458.96991    817.38263
  805.0      0.001242    458.99271    827.45654
  832.0      0.001202    459.01550    837.94019
  875.0      0.001143    459.03827    848.20105
  837.0      0.001195    459.06097    857.85406
  839.0      0.001192    459.08365    866.11517
  841.0      0.001189    459.10626    872.84601
  810.0      0.001235    459.12888    877.84888
  808.0      0.001238    459.15143    881.05090
  868.0      0.001152    459.17392    882.44409
  835.0      0.001198    459.19638    882.11487
  818.0      0.001222    459.21878    879.86206
  827.0      0.001209    459.24115    876.24200
  856.0      0.001168    459.26343    871.03174
  859.0      0.001164    459.28568    864.18378
  820.0      0.001220    459.30789    855.65967
  769.0      0.001300    459.32999    845.53973
  762.0      0.001312    459.35205    833.73639
  707.0      0.001414    459.37405    820.47064
  694.0      0.001441    459.39600    806.05548
  669.0      0.001495    459.41785    790.42938
  692.0      0.001445    459.43964    774.06165
  689.0      0.001451    459.46136    756.83441
  674.0      0.001484    459.48300    738.97388
  665.0      0.001504    459.50458    720.72839
  651.0      0.001536    459.52606    702.21375
  626.0      0.001597    459.54745    683.63239
  597.0      0.001675    459.56879    665.18982
  575.0      0.001739    459.59003    647.34717
  591.0      0.001692    459.61118    629.84888
  578.0      0.001730    459.63223    613.14050
  555.0      0.001802    459.65320    597.40399
  529.0      0.001890    459.67410    582.78918
  532.0      0.001880    459.69485    569.40674
  562.0      0.001779    459.71555    557.32617
  509.0      0.001965    459.73611    546.57642
  528.0      0.001894    459.75659    537.15070
  518.0      0.001931    459.77695    529.00616
  511.0      0.001957    459.79721    522.14838
  530.0      0.001887    459.81735    516.39191
  547.0      0.001828    459.83740    511.59509
  495.0      0.002020    459.85730    507.94656
  527.0      0.001898    459.87714    505.03851
  534.0      0.001873    459.89682    503.00043
  532.0      0.001880    459.91638    501.56488
  499.0      0.002004    459.93579    500.83817
  532.0      0.001880    459.95511    500.61786
  553.0      0.001808    459.97430    500.81244
  526.0      0.001901    459.99335    501.33432
  517.0      0.001934    460.01224    502.10596
  567.0      0.001764    460.03104    503.05783
  500.0      0.002000    460.04968    504.13837
  495.0      0.002020    460.06818    505.31989
  499.0      0.002004    460.08652    506.60583
  487.0      0.002053    460.10474    508.07712
  509.0      0.001965    460.12280    509.73901
  494.0      0.002024    460.14069    511.75082
  456.0      0.002193    460.15845    514.34814
  508.0      0.001969    460.17606    517.52258
  530.0      0.001887    460.19348    521.59814
  520.0      0.001923    460.21075    526.76501
  483.0      0.002070    460.22787    533.23334
  565.0      0.001770    460.24481    541.20355
  491.0      0.002037    460.26160    550.85193
  525.0      0.001905    460.27820    562.28210
  526.0      0.001901    460.29462    575.64368
  577.0      0.001733    460.31088    590.90991
  560.0      0.001786    460.32697    607.95038
  570.0      0.001754    460.34283    626.75372
  581.0      0.001721    460.35855    647.01416
  594.0      0.001684    460.37405    668.40979
  676.0      0.001479    460.38940    690.54999
  718.0      0.001393    460.40451    712.98016
  693.0      0.001443    460.41946    735.22083
  751.0      0.001332    460.43417    756.75159
  809.0      0.001236    460.44873    777.26569
  860.0      0.001163    460.46307    796.40991
  838.0      0.001193    460.47717    814.01630
  911.0      0.001098    460.49109    830.07928
  921.0      0.001086    460.50482    844.71796
  1003.0     0.000997    460.51828    858.05353
  978.0      0.001022    460.53156    870.29346
  1048.0     0.000954    460.54459    881.60162
  1041.0     0.000961    460.55743    892.10602
  967.0      0.001034    460.57004    901.89447
  1041.0     0.000961    460.58240    910.99817
  1042.0     0.000960    460.59454    919.36261
  1032.0     0.000969    460.60641    926.85999
  1016.0     0.000984    460.61810    933.04877
  989.0      0.001011    460.62952    937.82080
  979.0      0.001021    460.64069    939.86414
  904.0      0.001106    460.65161    938.81299
  911.0      0.001098    460.66229    934.01227
  898.0      0.001114    460.67273    924.96741
  866.0      0.001155    460.68289    911.46002
  817.0      0.001224    460.69281    893.60834
  840.0      0.001190    460.70245    871.83667
  804.0      0.001244    460.71185    846.85974
  782.0      0.001279    460.72095    819.27301
  709.0      0.001410    460.72980    790.77991
  708.0      0.001412    460.73840    761.52673
  685.0      0.001460    460.74667    732.69586
  630.0      0.001587    460.75470    705.09851
  582.0      0.001718    460.76242    679.42657
  584.0      0.001712    460.76987    656.23395
  606.0      0.001650    460.77704    635.92828
  627.0      0.001595    460.78391    618.72864
  544.0      0.001838    460.79047    604.81445
  578.0      0.001730    460.79675    594.13440
  532.0      0.001880    460.80270    586.55603
  532.0      0.001880    460.80838    581.85248
  590.0      0.001695    460.81372    579.72278
  597.0      0.001675    460.81876    579.81311
  548.0      0.001825    460.82349    581.73370
  577.0      0.001733    460.82791    585.07880
  586.0      0.001706    460.83200    589.44098
  638.0      0.001567    460.83575    594.43549
  603.0      0.001658    460.83920    599.74365
  618.0      0.001618    460.84232    605.04468
  666.0      0.001502    460.84509    610.12109
  728.0      0.001374    460.84750    614.98627
  638.0      0.001567    460.84961    619.57318
  701.0      0.001427    460.85138    623.83563
  665.0      0.001504    460.85278    628.04822
  686.0      0.001458    460.85382    632.21222
  701.0      0.001427    460.85452    636.44098
  730.0      0.001370    460.85489    640.93158
  670.0      0.001493    460.85486    645.68726
  713.0      0.001403    460.85446    650.71918
  756.0      0.001323    460.85373    656.29633
  705.0      0.001418    460.85260    662.59485
  733.0      0.001364    460.85110    669.79205
  740.0      0.001351    460.84924    678.06195
  745.0      0.001342    460.84698    687.49475
  746.0      0.001340    460.84436    698.16248
  725.0      0.001379    460.84134    710.00183
  699.0      0.001431    460.83792    722.87976
  743.0      0.001346    460.83411    736.58350
  765.0      0.001307    460.82993    750.91559
  808.0      0.001238    460.82529    765.39960
  845.0      0.001183    460.82028    779.75653
  827.0      0.001209    460.81485    793.86084
  807.0      0.001239    460.80902    807.52765
  855.0      0.001170    460.80276    820.73914
  862.0      0.001160    460.79608    834.02411
  865.0      0.001156    460.78900    847.47858
  913.0      0.001095    460.78149    861.66608
  880.0      0.001136    460.77353    877.20294
  875.0      0.001143    460.76517    894.42944
  942.0      0.001062    460.75632    913.71118
  916.0      0.001092    460.74707    934.88745
  900.0      0.001111    460.73737    957.86298
  927.0      0.001079    460.72723    982.21790
  955.0      0.001047    460.71661    1007.41449
  987.0      0.001013    460.70557    1032.32007
  982.0      0.001018    460.69406    1056.38257
  979.0      0.001021    460.68207    1078.50000
  904.0      0.001106    460.66962    1097.73987
  923.0      0.001083    460.65671    1113.27856
  936.0      0.001068    460.64331    1124.44568
  962.0      0.001040    460.62946    1130.83997
  979.0      0.001021    460.61508    1132.21509
  1028.0     0.000973    460.60025    1128.47168
  989.0      0.001011    460.58496    1119.81299
  980.0      0.001020    460.56912    1106.38599
  955.0      0.001047    460.55283    1088.48328
  925.0      0.001081    460.53601    1066.61572
  871.0      0.001148    460.51871    1041.39441
  899.0      0.001112    460.50089    1013.63519
  917.0      0.001091    460.48254    984.24982
  912.0      0.001096    460.46371    954.17200
  921.0      0.001086    460.44437    924.26178
  897.0      0.001115    460.42450    895.23645
  874.0      0.001144    460.40408    867.63623
  819.0      0.001221    460.38315    841.81854
  805.0      0.001242    460.36169    817.97729
  795.0      0.001258    460.33966    796.17206
  841.0      0.001189    460.31714    776.38867
  772.0      0.001295    460.29404    758.55603
  775.0      0.001290    460.27042    742.60150
  764.0      0.001309    460.24622    728.46680
  716.0      0.001397    460.22147    716.12231
  708.0      0.001412    460.19614    705.55566
  733.0      0.001364    460.17029    696.75464
  674.0      0.001484    460.14386    689.68292
  683.0      0.001464    460.11685    684.30627
  689.0      0.001451    460.08926    680.38269
  645.0      0.001550    460.06110    677.74426
  722.0      0.001385    460.03235    676.10370
  709.0      0.001410    460.00302    675.10962
  718.0      0.001393    459.97308    674.36108
  739.0      0.001353    459.94257    673.41949
  727.0      0.001376    459.91144    671.89581
  721.0      0.001387    459.87973    669.40961
  717.0      0.001395    459.84741    665.68622
  697.0      0.001435    459.81448    660.59009
  692.0      0.001445    459.78091    654.08905
  683.0      0.001464    459.74677    646.34222
  694.0      0.001441    459.71201    637.59021
  656.0      0.001524    459.67657    628.22156
  663.0      0.001508    459.64050    618.56958
  645.0      0.001550    459.60385    609.15668
  611.0      0.001637    459.56656    600.24396
  586.0      0.001706    459.52859    592.31964
  601.0      0.001664    459.48996    585.77991
  619.0      0.001616    459.45074    581.00800
  602.0      0.001661    459.41086    578.37207
  550.0      0.001818    459.37027    578.22656
  560.0      0.001786    459.32904    580.91077
  587.0      0.001704    459.28720    586.74713
  581.0      0.001721    459.24466    596.03479
  625.0      0.001600    459.20142    609.04199
  629.0      0.001590    459.15753    626.04944
  654.0      0.001529    459.11295    647.13928
  615.0      0.001626    459.06769    672.40179
  669.0      0.001495    459.02173    701.74634
  696.0      0.001437    458.97510    735.27393
  698.0      0.001433    458.92776    772.67206
  729.0      0.001372    458.87973    813.50647
  803.0      0.001245    458.83096    857.19452
  797.0      0.001255    458.78156    903.07861
  874.0      0.001144    458.73135    950.17847
  996.0      0.001004    458.68051    997.69189
  999.0      0.001001    458.62894    1044.27930
  1156.0     0.000865    458.57660    1088.67969
  1195.0     0.000837    458.52356    1129.51917
  1154.0     0.000867    458.46979    1165.55151
  1273.0     0.000786    458.41531    1195.70032
  1307.0     0.000765    458.36005    1219.19409
  1332.0     0.000751    458.30405    1235.70007
  1406.0     0.000711    458.24734    1245.03137
  1425.0     0.000702    458.18985    1247.24756
  1398.0     0.000715    458.13162    1243.23486
  1405.0     0.000712    458.07260    1233.09119
  1408.0     0.000710    458.01288    1217.17822
  1392.0     0.000718    457.95236    1195.90247
  1252.0     0.000799    457.89105    1169.56531
  1266.0     0.000790    457.82904    1138.62854
  1227.0     0.000815    457.76617    1103.71802
  1204.0     0.000831    457.70258    1065.67053
  1163.0     0.000860    457.63815    1025.56226
  1147.0     0.000872    457.57300    984.48914
  1072.0     0.000933    457.50702    943.69366
  1038.0     0.000963    457.44025    904.34509
  1023.0     0.000978    457.37265    867.52539
  891.0      0.001122    457.30432    834.20795
  924.0      0.001082    457.23514    805.23279
  867.0      0.001153    457.16516    781.30194
  845.0      0.001183    457.09439    763.00183
  795.0      0.001258    457.02277    750.62708
  837.0      0.001195    456.95029    744.40906
  805.0      0.001242    456.87704    744.40765
  788.0      0.001269    456.80298    750.33313
  828.0      0.001208    456.72806    761.77118
  872.0      0.001147    456.65228    778.16968
  843.0      0.001186    456.57574    798.75482
  852.0      0.001174    456.49829    822.61157
  815.0      0.001227    456.41998    848.69360
  911.0      0.001098    456.34085    875.85883
  907.0      0.001103    456.26093    902.86774
  907.0      0.001103    456.18008    928.46875
  961.0      0.001041    456.09836    951.42291
  977.0      0.001024    456.01584    970.59515
  978.0      0.001022    455.93240    985.06201
  1023.0     0.000978    455.84811    994.23004
  1053.0     0.000950    455.76291    997.90265
  1075.0     0.000930    455.67691    996.41620
  1060.0     0.000943    455.58997    990.39948
  1080.0     0.000926    455.50217    980.91449
  1104.0     0.000906    455.41345    969.06848
  1130.0     0.000885    455.32391    956.02625
  1100.0     0.000909    455.23343    942.86505
  1105.0     0.000905    455.14203    930.50079
  1097.0     0.000912    455.04984    919.64056
  1108.0     0.000903    454.95663    910.75946
  1112.0     0.000899    454.86252    904.10388
  1171.0     0.000854    454.76755    899.70367
  1100.0     0.000909    454.67169    897.39929
  1136.0     0.000880    454.57486    896.87103
  1159.0     0.000863    454.47711    897.75110
  1090.0     0.000917    454.37851    899.08087
  1138.0     0.000879    454.27893    900.64044
  1078.0     0.000928    454.17841    901.54242
  1029.0     0.000972    454.07693    901.11108
  1011.0     0.000989    453.97464    898.72931
  1023.0     0.000978    453.87134    893.89722
  969.0      0.001032    453.76706    886.24481
  911.0      0.001098    453.66196    875.54193
  933.0      0.001072    453.55579    861.70624
  904.0      0.001106    453.44873    844.80792
  817.0      0.001224    453.34067    825.07263
  825.0      0.001212    453.23178    802.87286
  763.0      0.001311    453.12183    778.62585
  760.0      0.001316    453.01093    753.08472
  747.0      0.001339    452.89905    726.80444
  663.0      0.001508    452.78632    700.29968
  628.0      0.001592    452.67252    674.41425
  593.0      0.001686    452.55777    649.54340
  618.0      0.001618    452.44214    625.98566
  586.0      0.001706    452.32544    604.41705
  601.0      0.001664    452.20773    584.81732
  558.0      0.001792    452.08911    567.35590
  526.0      0.001901    451.96957    552.13702
  561.0      0.001783    451.84894    539.14758
  528.0      0.001894    451.72736    528.10431
  536.0      0.001866    451.60486    519.39026
  487.0      0.002053    451.48129    512.63977
  496.0      0.002016    451.35675    507.71057
  493.0      0.002028    451.23117    504.45074
  499.0      0.002004    451.10474    502.71301
  457.0      0.002188    450.97720    502.33182
  460.0      0.002174    450.84866    503.16727
  536.0      0.001866    450.71924    505.07828
  517.0      0.001934    450.58868    507.96930
  467.0      0.002141    450.45718    511.63385
  483.0      0.002070    450.32462    515.93384
  505.0      0.001980    450.19116    520.85840
  509.0      0.001965    450.05661    526.24005
  504.0      0.001984    449.92105    531.91357
  511.0      0.001957    449.78448    537.89496
  490.0      0.002041    449.64700    544.03369
  482.0      0.002075    449.50839    550.25269
  546.0      0.001832    449.36877    556.50018
  515.0      0.001942    449.22824    562.75885
  520.0      0.001923    449.08661    569.05188
  536.0      0.001866    448.94394    575.44312
  561.0      0.001783    448.80029    582.03046
  556.0      0.001799    448.65567    588.90125
  588.0      0.001701    448.50995    596.14789
  636.0      0.001572    448.36322    603.82629
  585.0      0.001709    448.21555    611.91052
  592.0      0.001689    448.06677    620.44452
  628.0      0.001592    447.91696    629.31299
  617.0      0.001621    447.76611    638.31775
  640.0      0.001563    447.61438    647.48920
  656.0      0.001524    447.46149    656.59662
  666.0      0.001502    447.30759    665.50250
  667.0      0.001499    447.15277    674.14636
  689.0      0.001451    446.99683    682.37964
  673.0      0.001486    446.83981    690.25958
  717.0      0.001395    446.68182    697.86426
  756.0      0.001323    446.52292    705.33496
  743.0      0.001346    446.36282    712.83582
  779.0      0.001284    446.20175    720.53131
  811.0      0.001233    446.03964    728.52502
  755.0      0.001325    445.87662    736.85236
  732.0      0.001366    445.71243    745.44958
  750.0      0.001333    445.54724    754.15674
  793.0      0.001261    445.38116    762.73413
  750.0      0.001333    445.21393    770.87347
  730.0      0.001370    445.04568    778.25940
  751.0      0.001332    444.87637    784.59967
  737.0      0.001357    444.70621    789.66675
  710.0      0.001408    444.53491    793.32269
  700.0      0.001429    444.36255    795.52185
  764.0      0.001309    444.18933    796.29187
  722.0      0.001385    444.01495    795.80017
  682.0      0.001466    443.83957    794.18176
  738.0      0.001355    443.66315    791.67871
  720.0      0.001389    443.48587    788.53156
  767.0      0.001304    443.30746    784.96338
  770.0      0.001299    443.12802    781.15527
  795.0      0.001258    442.94772    777.22949
  799.0      0.001252    442.76627    773.19110
  793.0      0.001261    442.58380    769.12897
  792.0      0.001263    442.40039    764.92529
  815.0      0.001227    442.21606    760.12701
  775.0      0.001290    442.03061    755.28217
  775.0      0.001290    441.84418    749.97058
  746.0      0.001340    441.65677    744.12262
  800.0      0.001250    441.46848    737.76019
  707.0      0.001414    441.27908    730.98877
  797.0      0.001255    441.08868    723.99158
  746.0      0.001340    440.89746    717.01227
  777.0      0.001287    440.70514    710.37054
  759.0      0.001318    440.51181    704.05273
  712.0      0.001404    440.31750    698.91248
  751.0      0.001332    440.12241    694.88416
  730.0      0.001370    439.92618    692.13666
  721.0      0.001387    439.72900    690.77466
  764.0      0.001309    439.53101    690.82819
  755.0      0.001325    439.33191    692.24084
  769.0      0.001300    439.13190    694.85510
  745.0      0.001342    438.93091    698.45648
  790.0      0.001266    438.72913    702.68683
  748.0      0.001337    438.52628    707.13696
  787.0      0.001271    438.32251    711.29688
  771.0      0.001297    438.11795    714.68054
  756.0      0.001323    437.91229    716.80786
  758.0      0.001319    437.70575    717.27960
  737.0      0.001357    437.49829    715.74158
  778.0      0.001285    437.29010    712.01733
  735.0      0.001361    437.08081    706.04559
  637.0      0.001570    436.87064    697.87366
  673.0      0.001486    436.65961    687.73926
  676.0      0.001479    436.44785    675.91364
  632.0      0.001582    436.23502    662.78046
  607.0      0.001647    436.02130    648.79218
  655.0      0.001527    435.80695    634.44696
  624.0      0.001603    435.59152    620.23608
  612.0      0.001634    435.37527    606.64532
  549.0      0.001821    435.15814    593.98035
  576.0      0.001736    434.94037    582.86157
  584.0      0.001712    434.72159    573.20990
  584.0      0.001712    434.50198    565.69025
  549.0      0.001821    434.28174    560.17664
  490.0      0.002041    434.06049    556.67004
  543.0      0.001842    433.83847    555.10260
  525.0      0.001905    433.61563    555.32062
  545.0      0.001835    433.39218    557.09827
  546.0      0.001832    433.16779    560.11981
  567.0      0.001764    432.94263    564.04480
  562.0      0.001779    432.71689    568.48395
  522.0      0.001916    432.49020    573.02533
  549.0      0.001821    432.26276    577.17517
  588.0      0.001701    432.03461    580.70728
  564.0      0.001773    431.80591    583.21429
  568.0      0.001761    431.57629    584.46527
  528.0      0.001894    431.34598    584.35870
  636.0      0.001572    431.11499    582.93787
  594.0      0.001684    430.88345    580.38422
  562.0      0.001779    430.65109    576.86206
  591.0      0.001692    430.41803    572.97589
  584.0      0.001712    430.18451    568.98499
  584.0      0.001712    429.95020    565.26239
  613.0      0.001631    429.71521    562.04791
  591.0      0.001692    429.47958    559.80774
  575.0      0.001739    429.24356    558.64703
  613.0      0.001631    429.00674    558.68024
  608.0      0.001645    428.76935    559.83661
  571.0      0.001751    428.53156    562.23999
  624.0      0.001603    428.29300    565.63666
  610.0      0.001639    428.05389    569.80225
  581.0      0.001721    427.81427    574.40741
  545.0      0.001835    427.57428    579.10938
  603.0      0.001658    427.33356    583.52649
  602.0      0.001661    427.09241    587.28424
  598.0      0.001672    426.85092    590.04950
  581.0      0.001721    426.60876    591.57074
  555.0      0.001802    426.36615    591.70459
  604.0      0.001656    426.12311    590.42480
  590.0      0.001695    425.87979    587.81317
  549.0      0.001821    425.63589    584.02710
  582.0      0.001718    425.39157    579.26978
  606.0      0.001650    425.14688    573.75659
  547.0      0.001828    424.90201    567.69281
  526.0      0.001901    424.65656    561.25818
  573.0      0.001745    424.41080    554.59906
  550.0      0.001818    424.16489    547.82758
  522.0      0.001916    423.91852    541.02429
  493.0      0.002028    423.67178    534.24744
  541.0      0.001848    423.42480    527.54358
  507.0      0.001972    423.17776    520.96033
  490.0      0.002041    422.93033    514.55273
  500.0      0.002000    422.68262    508.39304
  526.0      0.001901    422.43491    502.55927
  485.0      0.002062    422.18680    497.13623
  472.0      0.002119    421.93857    492.20541
  466.0      0.002146    421.69016    487.83972
  469.0      0.002132    421.44180    484.10095
  442.0      0.002262    421.19315    481.03543
  486.0      0.002058    420.94440    478.62463
  444.0      0.002252    420.69577    476.97910
  464.0      0.002155    420.44690    476.04126
  501.0      0.001996    420.19797    475.78375
  455.0      0.002198    419.94907    476.15875
  485.0      0.002062    419.70035    477.09885
  443.0      0.002257    419.45145    478.51642
  407.0      0.002457    419.20261    480.32507
  435.0      0.002299    418.95386    482.37274
  441.0      0.002268    418.70538    484.51770
  436.0      0.002294    418.45682    486.62280
  466.0      0.002146    418.20840    488.57074
  454.0      0.002203    417.96036    490.14050
  439.0      0.002278    417.71231    491.24802
  465.0      0.002151    417.46445    491.76096
  470.0      0.002128    417.21683    491.68216
  430.0      0.002326    416.96964    490.90359
  474.0      0.002110    416.72256    489.64984
  438.0      0.002283    416.47580    487.90695
  461.0      0.002169    416.22955    485.93408
  440.0      0.002273    415.98346    483.62122
  429.0      0.002331    415.73779    481.22067
  427.0      0.002342    415.49249    478.85086
  444.0      0.002252    415.24783    476.61127
  457.0      0.002188    415.00345    474.57617
  423.0      0.002364    414.75955    472.79456
  465.0      0.002151    414.51636    471.28720
  456.0      0.002193    414.27353    470.06519
  502.0      0.001992    414.03128    468.97351
  458.0      0.002183    413.78967    468.11835
  491.0      0.002037    413.54880    467.38727
  473.0      0.002114    413.30847    466.66873
  446.0      0.002242    413.06882    465.87451
  478.0      0.002092    412.82990    464.84067
  477.0      0.002096    412.59189    463.68817
  514.0      0.001946    412.35452    462.29062
  488.0      0.002049    412.11792    460.63602
  485.0      0.002062    411.88239    458.71130
  466.0      0.002146    411.64752    456.57742
  466.0      0.002146    411.41360    454.23972
  491.0      0.002037    411.18063    451.74652
  482.0      0.002075    410.94879    449.16742
  466.0      0.002146    410.71780    446.55441
  472.0      0.002119    410.48785    443.97833
  486.0      0.002058    410.25919    441.44296
  456.0      0.002193    410.03143    439.16882
  448.0      0.002232    409.80481    437.16772
  425.0      0.002353    409.57944    435.40848
  471.0      0.002123    409.35544    434.03363
  429.0      0.002331    409.13251    433.08475
  472.0      0.002119    408.91089    432.55209
  482.0      0.002075    408.69077    432.46161
  472.0      0.002119    408.47189    432.80109
  463.0      0.002160    408.25439    433.55225
  469.0      0.002132    408.03833    434.68152
  459.0      0.002179    407.82394    436.10400
  455.0      0.002198    407.61096    437.83383
  455.0      0.002198    407.39951    439.75980
  477.0      0.002096    407.18967    441.79840
  464.0      0.002155    406.98166    443.85861
  434.0      0.002304    406.77521    445.84531
  439.0      0.002278    406.57043    447.66507
  436.0      0.002294    406.36765    449.23193
  462.0      0.002165    406.16650    450.47379
  446.0      0.002242    405.96725    451.29697
  455.0      0.002198    405.76987    451.75717
  454.0      0.002203    405.57465    451.81049
  429.0      0.002331    405.38123    451.41968
  429.0      0.002331    405.18991    450.71902
  416.0      0.002404    405.00079    449.78183
  413.0      0.002421    404.81366    448.65091
  433.0      0.002309    404.62875    447.40652
  424.0      0.002358    404.44608    446.04385
  433.0      0.002309    404.26581    444.75015
  393.0      0.002545    404.08774    443.50467
  409.0      0.002445    403.91202    442.35672
  408.0      0.002451    403.73892    441.32678
  453.0      0.002208    403.56815    440.40417
  438.0      0.002283    403.39990    439.60211
  430.0      0.002326    403.23425    438.87921
  446.0      0.002242    403.07135    438.21722
  428.0      0.002336    402.91104    437.57797
  451.0      0.002217    402.75345    436.91385
  417.0      0.002398    402.59866    436.19202
  450.0      0.002222    402.44687    435.37012
  408.0      0.002451    402.29785    434.41989
  458.0      0.002183    402.15179    433.32724
  471.0      0.002123    402.00885    432.09369
  453.0      0.002208    401.86887    430.74988
  429.0      0.002331    401.73206    429.29636
  488.0      0.002049    401.59842    427.78625
  439.0      0.002278    401.46814    426.26312
  436.0     .            .            .
  430.0     .            .            .
  453.0     .            .            .
  447.0     .            .            .
  448.0     .            .            .
  457.0     .            .            .
  479.0     .            .            .
  423.0     .            .            .
  465.0     .            .            .
  473.0     .            .            .
  448.0     .            .            .
  476.0     .            .            .
  444.0     .            .            .
  433.0     .            .            .
  452.0     .            .            .
  467.0     .            .            .
  439.0     .            .            .
  471.0     .            .            .
  412.0     .            .            .
  450.0     .            .            .
  425.0     .            .            .
  416.0     .            .            .
  440.0     .            .            .
  417.0     .            .            .
  442.0     .            .            .
  466.0     .            .            .
  427.0     .            .            .
  441.0     .            .            .
  469.0     .            .            .
  453.0     .            .            .
  463.0     .            .            .
  451.0     .            .            .
  481.0     .            .            .
  473.0     .            .            .
  416.0     .            .            .
  459.0     .            .            .
  447.0     .            .            .
  450.0     .            .            .
  465.0     .            .            .
  496.0     .            .            .
  481.0     .            .            .
  537.0     .            .            .
  525.0     .            .            .
  502.0     .            .            .
  488.0     .            .            .
  505.0     .            .            .
  526.0     .            .            .
  512.0     .            .            .
  505.0     .            .            .
  478.0     .            .            .
  510.0     .            .            .
  539.0     .            .            .
  565.0     .            .            .
  578.0     .            .            .
  581.0     .            .            .
  539.0     .            .            .
  538.0     .            .            .
  568.0     .            .            .
  529.0     .            .            .
  556.0     .            .            .
  565.0     .            .            .
  576.0     .            .            .
  541.0     .            .            .
  594.0     .            .            .
  595.0     .            .            .
  578.0     .            .            .
  629.0     .            .            .
  563.0     .            .            .
  561.0     .            .            .
  611.0     .            .            .
  586.0     .            .            .
  585.0     .            .            .
  570.0     .            .            .
  559.0     .            .            .
  605.0     .            .            .
  593.0     .            .            .
  556.0     .            .            .
  558.0     .            .            .
  557.0     .            .            .
  552.0     .            .            .
  536.0     .            .            .
  564.0     .            .            .
  592.0     .            .            .
  560.0     .            .            .
  508.0     .            .            .
  547.0     .            .            .
  542.0     .            .            .
  533.0     .            .            .
  536.0     .            .            .
  550.0     .            .            .
  512.0     .            .            .
  475.0     .            .            .
  504.0     .            .            .
  513.0     .            .            .
  469.0     .            .            .
  488.0     .            .            .
  482.0     .            .            .
  462.0     .            .            .
  441.0     .            .            .
  435.0     .            .            .
  440.0     .            .            .
  452.0     .            .            .
  462.0     .            .            .
  418.0     .            .            .
  389.0     .            .            .
  391.0     .            .            .
  419.0     .            .            .
  442.0     .            .            .
  465.0     .            .            .
  430.0     .            .            .
  408.0     .            .            .
  446.0     .            .            .
  443.0     .            .            .
  411.0     .            .            .
  436.0     .            .            .
  408.0     .            .            .
  446.0     .            .            .
  437.0     .            .            .
  436.0     .            .            .
  484.0     .            .            .
  457.0     .            .            .
  504.0     .            .            .
  478.0     .            .            .
  484.0     .            .            .
  467.0     .            .            .
  481.0     .            .            .
  508.0     .            .            .
  470.0     .            .            .
  497.0     .            .            .
  480.0     .            .            .
  485.0     .            .            .
  503.0     .            .            .
  490.0     .            .            .
  505.0     .            .            .
  526.0     .            .            .
  549.0     .            .            .
  530.0     .            .            .
  541.0     .            .            .
  543.0     .            .            .
  530.0     .            .            .
  531.0     .            .            .
  579.0     .            .            .
  561.0     .            .            .
  535.0     .            .            .
  536.0     .            .            .
  526.0     .            .            .
  544.0     .            .            .
  561.0     .            .            .
  560.0     .            .            .
  556.0     .            .            .
  519.0     .            .            .
  567.0     .            .            .
  580.0     .            .            .
  547.0     .            .            .
  543.0     .            .            .
  545.0     .            .            .
  545.0     .            .            .
  554.0     .            .            .
  560.0     .            .            .
  577.0     .            .            .
  540.0     .            .            .
  549.0     .            .            .
  524.0     .            .            .
  549.0     .            .            .
  508.0     .            .            .
  494.0     .            .            .
  515.0     .            .            .
  545.0     .            .            .
  526.0     .            .            .
  570.0     .            .            .
  495.0     .            .            .
  525.0     .            .            .
  484.0     .            .            .
  516.0     .            .            .
  473.0     .            .            .
  461.0     .            .            .
  462.0     .            .            .
  508.0     .            .            .
  463.0     .            .            .
  474.0     .            .            .
  451.0     .            .            .
  447.0     .            .            .
  466.0     .            .            .
  475.0     .            .            .
  467.0     .            .            .
  469.0     .            .            .
  464.0     .            .            .
  506.0     .            .            .
  484.0     .            .            .
  470.0     .            .            .
  482.0     .            .            .
  517.0     .            .            .
  456.0     .            .            .
  478.0     .            .            .
  506.0     .            .            .
  460.0     .            .            .
  438.0     .            .            .
  495.0     .            .            .
  461.0     .            .            .
  502.0     .            .            .
  420.0     .            .            .
  476.0     .            .            .
  487.0     .            .            .
  472.0     .            .            .
  481.0     .            .            .
  431.0     .            .            .
  477.0     .            .            .
  424.0     .            .            .
  471.0     .            .            .
  455.0     .            .            .
  452.0     .            .            .
  478.0     .            .            .
  495.0     .            .            .
  498.0     .            .            .
  516.0     .            .            .
  507.0     .            .            .
  524.0     .            .            .
  540.0     .            .            .
  577.0     .            .            .
  572.0     .            .            .
  557.0     .            .            .
  573.0     .            .            .
  608.0     .            .            .
  635.0     .            .            .
  607.0     .            .            .
  667.0     .            .            .
  649.0     .            .            .
  636.0     .            .            .
  642.0     .            .            .
  642.0     .            .            .
  599.0     .            .            .
  564.0     .            .            .
  608.0     .            .            .
  558.0     .            .            .
  644.0     .            .            .
  599.0     .            .            .
  547.0     .            .            .
  583.0     .            .            .
  509.0     .            .            .
  559.0     .            .            .
  542.0     .            .            .
  569.0     .            .            .
  553.0     .            .            .
  598.0     .            .            .
  528.0     .            .            .
  549.0     .            .            .
  545.0     .            .            .
  597.0     .            .            .
  587.0     .            .            .
  619.0     .            .            .
  606.0     .            .            .
  666.0     .            .            .
  692.0     .            .            .
  695.0     .            .            .
  663.0     .            .            .
  693.0     .            .            .
  699.0     .            .            .
  749.0     .            .            .
  747.0     .            .            .
  771.0     .            .            .
  758.0     .            .            .
  787.0     .            .            .
  803.0     .            .            .
  773.0     .            .            .
  763.0     .            .            .
  759.0     .            .            .
  787.0     .            .            .
  729.0     .            .            .
  732.0     .            .            .
  725.0     .            .            .
  644.0     .            .            .
  647.0     .            .            .
  669.0     .            .            .
  620.0     .            .            .
  602.0     .            .            .
  566.0     .            .            .
  518.0     .            .            .
  583.0     .            .            .
  541.0     .            .            .
  497.0     .            .            .
  498.0     .            .            .
  454.0     .            .            .
  489.0     .            .            .
  463.0     .            .            .
  472.0     .            .            .
  478.0     .            .            .
  429.0     .            .            .
  409.0     .            .            .
  469.0     .            .            .
  461.0     .            .            .
  402.0     .            .            .
  445.0     .            .            .
  478.0     .            .            .
  439.0     .            .            .
  461.0     .            .            .
  481.0     .            .            .
  500.0     .            .            .
  407.0     .            .            .
  412.0     .            .            .
  453.0     .            .            .
  455.0     .            .            .
  447.0     .            .            .
  485.0     .            .            .
  447.0     .            .            .
  458.0     .            .            .
  494.0     .            .            .
  450.0     .            .            .
  485.0     .            .            .
  540.0     .            .            .
  488.0     .            .            .
  512.0     .            .            .
  515.0     .            .            .
  513.0     .            .            .
  533.0     .            .            .
  551.0     .            .            .
  521.0     .            .            .
  517.0     .            .            .
  509.0     .            .            .
  484.0     .            .            .
  500.0     .            .            .
  513.0     .            .            .
  521.0     .            .            .
  491.0     .            .            .
  499.0     .            .            .
  520.0     .            .            .
  521.0     .            .            .
  483.0     .            .            .
  472.0     .            .            .
  448.0     .            .            .
  444.0     .            .            .
  437.0     .            .            .
  427.0     .            .            .
  455.0     .            .            .
  422.0     .            .            .
  406.0     .            .            .
  429.0     .            .            .
  418.0     .            .            .
  411.0     .            .            .
  449.0     .            .            .
  400.0     .            .            .
  400.0     .            .            .
  433.0     .            .            .
  392.0     .            .            .
  409.0     .            .            .
  380.0     .            .            .
  390.0     .            .            .
  385.0     .            .            .
  368.0     .            .            .
  405.0     .            .            .
  419.0     .            .            .
  402.0     .            .            .
  399.0     .            .            .
  393.0     .            .            .
  400.0     .            .            .
  418.0     .            .            .
  374.0     .            .            .
  382.0     .            .            .
  423.0     .            .            .
  408.0     .            .            .
  403.0     .            .            .
  435.0     .            .            .
  393.0     .            .            .
  402.0     .            .            .
  383.0     .            .            .
  399.0     .            .            .
  370.0     .            .            .
  411.0     .            .            .
  362.0     .            .            .
  391.0     .            .            .
  434.0     .            .            .
  370.0     .            .            .
  367.0     .            .            .
  391.0     .            .            .
  404.0     .            .            .
  379.0     .            .            .
  401.0     .            .            .
  418.0     .            .            .
  400.0     .            .            .
  388.0     .            .            .
  424.0     .            .            .
  388.0     .            .            .
  385.0     .            .            .
  437.0     .            .            .
  409.0     .            .            .
  403.0     .            .            .
  393.0     .            .            .
  434.0     .            .            .
  416.0     .            .            .
  435.0     .            .            .
  426.0     .            .            .
  449.0     .            .            .
  445.0     .            .            .
  395.0     .            .            .
  423.0     .            .            .
  455.0     .            .            .
  443.0     .            .            .
  449.0     .            .            .
  455.0     .            .            .
  469.0     .            .            .
  446.0     .            .            .
  456.0     .            .            .
  424.0     .            .            .
  462.0     .            .            .
  430.0     .            .            .
  493.0     .            .            .
  453.0     .            .            .
  477.0     .            .            .
  500.0     .            .            .
  482.0     .            .            .
  507.0     .            .            .
  486.0     .            .            .
  536.0     .            .            .
  502.0     .            .            .
  529.0     .            .            .
  499.0     .            .            .
  496.0     .            .            .
  493.0     .            .            .
  487.0     .            .            .
  514.0     .            .            .
  505.0     .            .            .
  465.0     .            .            .
  515.0     .            .            .
  472.0     .            .            .
  471.0     .            .            .
  486.0     .            .            .
  502.0     .            .            .
  461.0     .            .            .
  508.0     .            .            .
  477.0     .            .            .
  478.0     .            .            .
  462.0     .            .            .
  449.0     .            .            .
  457.0     .            .            .
  486.0     .            .            .
  478.0     .            .            .
  471.0     .            .            .
  495.0     .            .            .
  518.0     .            .            .
  539.0     .            .            .
  533.0     .            .            .
  522.0     .            .            .
  537.0     .            .            .
  542.0     .            .            .
  564.0     .            .            .
  526.0     .            .            .
  557.0     .            .            .
  538.0     .            .            .
  518.0     .            .            .
  495.0     .            .            .
  531.0     .            .            .
  505.0     .            .            .
  518.0     .            .            .
  549.0     .            .            .
  529.0     .            .            .
  494.0     .            .            .
  482.0     .            .            .
  511.0     .            .            .
  496.0     .            .            .
  548.0     .            .            .
  523.0     .            .            .
  483.0     .            .            .
  473.0     .            .            .
  500.0     .            .            .
  497.0     .            .            .
  474.0     .            .            .
  494.0     .            .            .
  491.0     .            .            .
  510.0     .            .            .
  498.0     .            .            .
  522.0     .            .            .
  473.0     .            .            .
  504.0     .            .            .
  496.0     .            .            .
  485.0     .            .            .
  504.0     .            .            .
  527.0     .            .            .
  490.0     .            .            .
  505.0     .            .            .
  512.0     .            .            .
  509.0     .            .            .
  514.0     .            .            .
  508.0     .            .            .
  514.0     .            .            .
  498.0     .            .            .
  504.0     .            .            .
  494.0     .            .            .
  477.0     .            .            .
  501.0     .            .            .
  468.0     .            .            .
  476.0     .            .            .
  473.0     .            .            .
  435.0     .            .            .
  481.0     .            .            .
  482.0     .            .            .
  473.0     .            .            .
  475.0     .            .            .
  503.0     .            .            .
  447.0     .            .            .
  429.0     .            .            .
  446.0     .            .            .
  461.0     .            .            .
  450.0     .            .            .
  432.0     .            .            .
  433.0     .            .            .
  394.0     .            .            .
  422.0     .            .            .
  428.0     .            .            .
  435.0     .            .            .
  434.0     .            .            .
  444.0     .            .            .
  449.0     .            .            .
  464.0     .            .            .
  433.0     .            .            .
  436.0     .            .            .
  416.0     .            .            .
  423.0     .            .            .
  457.0     .            .            .
  452.0     .            .            .
  469.0     .            .            .
  439.0     .            .            .
  473.0     .            .            .
  439.0     .            .            .
  452.0     .            .            .
  458.0     .            .            .
  423.0     .            .            .
  461.0     .            .            .
  434.0     .            .            .
  462.0     .            .            .
  472.0     .            .            .
  475.0     .            .            .
  437.0     .            .            .
  439.0     .            .            .
  455.0     .            .            .
  435.0     .            .            .
  415.0     .            .            .
  435.0     .            .            .
  466.0     .            .            .
  430.0     .            .            .
  444.0     .            .            .
  419.0     .            .            .
  435.0     .            .            .
  499.0     .            .            .
  487.0     .            .            .
  499.0     .            .            .
  466.0     .            .            .
  495.0     .            .            .
  479.0     .            .            .
  495.0     .            .            .
  478.0     .            .            .
  501.0     .            .            .
  494.0     .            .            .
  504.0     .            .            .
  459.0     .            .            .
  484.0     .            .            .
  468.0     .            .            .
  491.0     .            .            .
  521.0     .            .            .
  505.0     .            .            .
  560.0     .            .            .
  558.0     .            .            .
  534.0     .            .            .
  549.0     .            .            .
  509.0     .            .            .
  603.0     .            .            .
  541.0     .            .            .
  578.0     .            .            .
  561.0     .            .            .
  583.0     .            .            .
  595.0     .            .            .
  596.0     .            .            .
  605.0     .            .            .
  619.0     .            .            .
  629.0     .            .            .
  670.0     .            .            .
  598.0     .            .            .
  643.0     .            .            .
  683.0     .            .            .
  699.0     .            .            .
  758.0     .            .            .
  713.0     .            .            .
  705.0     .            .            .
  763.0     .            .            .
  756.0     .            .            .
  781.0     .            .            .
  761.0     .            .            .
  799.0     .            .            .
  781.0     .            .            .
  801.0     .            .            .
  810.0     .            .            .
  782.0     .            .            .
  729.0     .            .            .
  787.0     .            .            .
  762.0     .            .            .
  722.0     .            .            .
  725.0     .            .            .
  701.0     .            .            .
  705.0     .            .            .
  654.0     .            .            .
  695.0     .            .            .
  664.0     .            .            .
  625.0     .            .            .
  582.0     .            .            .
  592.0     .            .            .
  578.0     .            .            .
  560.0     .            .            .
  580.0     .            .            .
  562.0     .            .            .
  563.0     .            .            .
  543.0     .            .            .
  591.0     .            .            .
  546.0     .            .            .
  541.0     .            .            .
  588.0     .            .            .
  559.0     .            .            .
  500.0     .            .            .
  537.0     .            .            .
  524.0     .            .            .
  479.0     .            .            .
  497.0     .            .            .
  493.0     .            .            .
  460.0     .            .            .
  500.0     .            .            .
  460.0     .            .            .
  475.0     .            .            .
  477.0     .            .            .
  474.0     .            .            .
  485.0     .            .            .
  477.0     .            .            .
  448.0     .            .            .
  467.0     .            .            .
  484.0     .            .            .
  425.0     .            .            .
  443.0     .            .            .
  434.0     .            .            .
  463.0     .            .            .
  469.0     .            .            .
  464.0     .            .            .
  448.0     .            .            .
  441.0     .            .            .
  444.0     .            .            .
  453.0     .            .            .
  497.0     .            .            .
  446.0     .            .            .
  460.0     .            .            .
  452.0     .            .            .
  436.0     .            .            .
  416.0     .            .            .
  452.0     .            .            .
  436.0     .            .            .
  460.0     .            .            .
  410.0     .            .            .
  396.0     .            .            .
  403.0     .            .            .
  454.0     .            .            .
  423.0     .            .            .
  413.0     .            .            .
  411.0     .            .            .
  429.0     .            .            .
  419.0     .            .            .
  398.0     .            .            .
  397.0     .            .            .
  414.0     .            .            .
  396.0     .            .            .
  404.0     .            .            .
  403.0     .            .            .
  388.0     .            .            .
  411.0     .            .            .
  410.0     .            .            .
  409.0     .            .            .
  416.0     .            .            .
  416.0     .            .            .
  435.0     .            .            .
  435.0     .            .            .
  430.0     .            .            .
  410.0     .            .            .
  415.0     .            .            .
  423.0     .            .            .
  383.0     .            .            .
  438.0     .            .            .
  426.0     .            .            .
  433.0     .            .            .
  391.0     .            .            .
  436.0     .            .            .
  432.0     .            .            .
  407.0     .            .            .
  432.0     .            .            .
  435.0     .            .            .
  472.0     .            .            .
  463.0     .            .            .
  466.0     .            .            .
  473.0     .            .            .
  495.0     .            .            .
  491.0     .            .            .
  486.0     .            .            .
  511.0     .            .            .
  509.0     .            .            .
  560.0     .            .            .
  501.0     .            .            .
  568.0     .            .            .
  595.0     .            .            .
  572.0     .            .            .
  567.0     .            .            .
  571.0     .            .            .
  608.0     .            .            .
  601.0     .            .            .
  628.0     .            .            .
  619.0     .            .            .
  659.0     .            .            .
  688.0     .            .            .
  678.0     .            .            .
  666.0     .            .            .
  674.0     .            .            .
  638.0     .            .            .
  658.0     .            .            .
  602.0     .            .            .
  556.0     .            .            .
  614.0     .            .            .
  612.0     .            .            .
  565.0     .            .            .
  569.0     .            .            .
  538.0     .            .            .
  527.0     .            .            .
  519.0     .            .            .
  507.0     .            .            .
  488.0     .            .            .
  526.0     .            .            .
  512.0     .            .            .
  489.0     .            .            .
  460.0     .            .            .
  486.0     .            .            .
  435.0     .            .            .
  453.0     .            .            .
  510.0     .            .            .
  477.0     .            .            .
  442.0     .            .            .
  458.0     .            .            .
  461.0     .            .            .
  501.0     .            .            .
  456.0     .            .            .
  454.0     .            .            .
  467.0     .            .            .
  533.0     .            .            .
  469.0     .            .            .
  475.0     .            .            .
  493.0     .            .            .
  537.0     .            .            .
  489.0     .            .            .
  472.0     .            .            .
  478.0     .            .            .
  509.0     .            .            .
  502.0     .            .            .
  528.0     .            .            .
  462.0     .            .            .
  494.0     .            .            .
  495.0     .            .            .
  515.0     .            .            .
  513.0     .            .            .
  561.0     .            .            .
  538.0     .            .            .
  516.0     .            .            .
  521.0     .            .            .
  521.0     .            .            .
  512.0     .            .            .
  518.0     .            .            .
  510.0     .            .            .
  510.0     .            .            .
  531.0     .            .            .
  481.0     .            .            .
  467.0     .            .            .
  512.0     .            .            .
  537.0     .            .            .
  545.0     .            .            .
  485.0     .            .            .
  553.0     .            .            .
  480.0     .            .            .
  513.0     .            .            .
  545.0     .            .            .
  548.0     .            .            .
  518.0     .            .            .
  559.0     .            .            .
  589.0     .            .            .
  590.0     .            .            .
  606.0     .            .            .
  618.0     .            .            .
  612.0     .            .            .
  596.0     .            .            .
  628.0     .            .            .
  638.0     .            .            .
  603.0     .            .            .
  689.0     .            .            .
  711.0     .            .            .
  730.0     .            .            .
  717.0     .            .            .
  735.0     .            .            .
  754.0     .            .            .
  812.0     .            .            .
  815.0     .            .            .
  778.0     .            .            .
  787.0     .            .            .
  864.0     .            .            .
  850.0     .            .            .
  793.0     .            .            .
  868.0     .            .            .
  846.0     .            .            .
  819.0     .            .            .
  823.0     .            .            .
  839.0     .            .            .
  868.0     .            .            .
  979.0     .            .            .
  975.0     .            .            .
  957.0     .            .            .
  948.0     .            .            .
  1022.0    .            .            .
  1027.0    .            .            .
  993.0     .            .            .
  1048.0    .            .            .
  1049.0    .            .            .
  1108.0    .            .            .
  1055.0    .            .            .
  985.0     .            .            .
  1062.0    .            .            .
  1082.0    .            .            .
  1104.0    .            .            .
  1077.0    .            .            .
  1076.0    .            .            .
  1126.0    .            .            .
  1049.0    .            .            .
  1034.0    .            .            .
  998.0     .            .            .
  966.0     .            .            .
  978.0     .            .            .
  931.0     .            .            .
  1013.0    .            .            .
  947.0     .            .            .
  894.0     .            .            .
  970.0     .            .            .
  928.0     .            .            .
  874.0     .            .            .
  844.0     .            .            .
  849.0     .            .            .
  835.0     .            .            .
  901.0     .            .            .
  811.0     .            .            .
  817.0     .            .            .
  715.0     .            .            .
  783.0     .            .            .
  817.0     .            .            .
  726.0     .            .            .
  784.0     .            .            .
  776.0     .            .            .
  698.0     .            .            .
  749.0     .            .            .
  707.0     .            .            .
  671.0     .            .            .
  668.0     .            .            .
  617.0     .            .            .
  594.0     .            .            .
  646.0     .            .            .
  616.0     .            .            .
  603.0     .            .            .
  592.0     .            .            .
  625.0     .            .            .
  519.0     .            .            .
  566.0     .            .            .
  522.0     .            .            .
  497.0     .            .            .
  540.0     .            .            .
  497.0     .            .            .
  506.0     .            .            .
  508.0     .            .            .
  443.0     .            .            .
  484.0     .            .            .
  474.0     .            .            .
  448.0     .            .            .
  468.0     .            .            .
  442.0     .            .            .
  467.0     .            .            .
  411.0     .            .            .
  470.0     .            .            .
  419.0     .            .            .
  445.0     .            .            .
  440.0     .            .            .
  409.0     .            .            .
  426.0     .            .            .
  446.0     .            .            .
  418.0     .            .            .
  409.0     .            .            .
  384.0     .            .            .
  388.0     .            .            .
  386.0     .            .            .
  425.0     .            .            .
  436.0     .            .            .
  409.0     .            .            .
  387.0     .            .            .
  385.0     .            .            .
  411.0     .            .            .
  397.0     .            .            .
  412.0     .            .            .
  391.0     .            .            .
  379.0     .            .            .
  355.0     .            .            .
  373.0     .            .            .
  362.0     .            .            .
  384.0     .            .            .
  389.0     .            .            .
  379.0     .            .            .
  380.0     .            .            .
  380.0     .            .            .
  414.0     .            .            .
  388.0     .            .            .
  392.0     .            .            .
  418.0     .            .            .
  400.0     .            .            .
  392.0     .            .            .
  376.0     .            .            .
  387.0     .            .            .
  389.0     .            .            .
  385.0     .            .            .
  386.0     .            .            .
  421.0     .            .            .
  461.0     .            .            .
  401.0     .            .            .
  433.0     .            .            .
  381.0     .            .            .
  398.0     .            .            .
  390.0     .            .            .
  425.0     .            .            .
  452.0     .            .            .
  407.0     .            .            .
  394.0     .            .            .
  405.0     .            .            .
  420.0     .            .            .
  427.0     .            .            .
  407.0     .            .            .
  402.0     .            .            .
  436.0     .            .            .
  434.0     .            .            .
  426.0     .            .            .
  422.0     .            .            .
  391.0     .            .            .
  430.0     .            .            .
  422.0     .            .            .
  452.0     .            .            .
  422.0     .            .            .
  448.0     .            .            .
  433.0     .            .            .
  421.0     .            .            .
  431.0     .            .            .
  423.0     .            .            .
  471.0     .            .            .
  413.0     .            .            .
  423.0     .            .            .
  443.0     .            .            .
  411.0     .            .            .
  413.0     .            .            .
  414.0     .            .            .
  453.0     .            .            .
  456.0     .            .            .
  451.0     .            .            .
  468.0     .            .            .
  455.0     .            .            .
  474.0     .            .            .
  463.0     .            .            .
  418.0     .            .            .
  423.0     .            .            .
  412.0     .            .            .
  479.0     .            .            .
  433.0     .            .            .
  476.0     .            .            .
  489.0     .            .            .
  457.0     .            .            .
  446.0     .            .            .
  445.0     .            .            .
  451.0     .            .            .
  430.0     .            .            .
  418.0     .            .            .
  419.0     .            .            .
  394.0     .            .            .
  409.0     .            .            .
  385.0     .            .            .
  384.0     .            .            .
  350.0     .            .            .
  411.0     .            .            .
  375.0     .            .            .
  348.0     .            .            .
  400.0     .            .            .
  386.0     .            .            .
  415.0     .            .            .
  409.0     .            .            .
  410.0     .            .            .
  393.0     .            .            .
  400.0     .            .            .
  410.0     .            .            .
  391.0     .            .            .
  384.0     .            .            .
  358.0     .            .            .
  383.0     .            .            .
  376.0     .            .            .
  383.0     .            .            .
  401.0     .            .            .
_pd_meas_number_of_points              8100
_pd_proc_number_of_points              8100

loop_
      _refln_index_h
      _refln_index_k
      _refln_index_l
      _refln_observed_status
      _refln_F_squared_meas
      _refln_F_squared_calc
      _refln_phase_calc
      _refln_d_spacing
      _gsas_i100_meas
   1   0   0 o  3100.683   2952.701    0.00    7.92998  65.57
   0   0   2 o  4030.970   3805.713   180.00   7.56759  77.52
   1   0  -1 o   2.831      1.227      0.00    7.21362   0.05
   1   0   1 o  37.203      1.711      0.00    6.84903   0.58
   1   0  -2 o  152.641    225.887     0.00    5.65564   1.61
   1   0   2 o  4159.131   3927.105    0.00    5.31012  39.10
   0   1   0 o   0.197      0.180     180.00   5.16868   0.00
   0   0   3 o   4.457     27.467      0.00    5.04506   0.05
   0   1   1 o  1007.906   905.903    180.00   4.89539   8.20
   0   1  -1 o  978.060    857.585    180.00   4.88727   7.95
   1   0  -3 o  324.350    341.701    180.00   4.38360   2.09
   1   1   0 o  12444.980  12146.396  180.00   4.33223  77.81
   1  -1   0 o  14238.079  13910.789   0.00    4.32797  88.85
   0   1   2 o   3.393      5.640      0.00    4.27356   0.02
   0   1  -2 o   6.238      9.824     180.00   4.26276   0.04
   1  -1  -1 o  166.925    177.404     0.00    4.20212   1.04
   1   1  -1 o  230.953    244.397     0.00    4.20086   1.39
   1   0   3 o  294.558    269.662     0.00    4.14010   1.70
   1   1   1 o  639.454    680.863     0.00    4.12999   3.73
   1  -1   1 o  591.929    661.582     0.00    4.12143   3.40
   2   0   0 o  1329.356   1339.695    0.00    3.96499   7.07
   2   0  -1 o  173.539    255.391    180.00   3.89623   0.89
   1  -1  -2 o   3.993     10.527      0.00    3.81777   0.02
   1   1  -2 o  -0.324      0.651      0.00    3.81298   0.00
   0   0   4 o  53.200     99.675      0.00    3.78379   0.29
   2   0   1 o  58.213     99.352      0.00    3.77763   0.29
   1   1   2 o  2669.951   2615.138   180.00   3.70867  11.98
   1  -1   2 o  2241.930   2146.632    0.00    3.69895  10.02
   0   1   3 o  334.863    291.945    180.00   3.61522   1.45
   2   0  -2 o  1092.573   1072.704    0.00    3.60681   4.77
   0   1  -3 o  903.966    895.768    180.00   3.60542   3.95
   1   0  -4 o  24767.250  24377.107  180.00   3.50182 100.00
   2   0   2 o  104.378    131.941     0.00    3.42451   0.44
   1  -1  -3 o  1189.595   885.887     0.00    3.34607   4.37
   1   1  -3 o  219.540    196.725     0.00    3.34025   0.82
   1   0   4 o  13004.709  13249.441  180.00   3.33427  47.59
   1   1   3 o  1104.280   1283.263    0.00    3.23571   3.82
   1  -1   3 o  1353.675   1645.500    0.00    3.22691   4.67
   2   0  -3 o  37.119     31.124     180.00   3.21751   0.12
   2   1   0 o  234.690    284.977    180.00   3.14759   0.79
   2  -1   0 o  317.642    384.952     0.00    3.14432   1.06
   2   1  -1 o  92.350     298.754    180.00   3.11181   0.34
   2  -1  -1 o  42.410     151.273    180.00   3.11074   0.16
   0   1   4 o  67.297     81.875      0.00    3.05708   0.20
   2   1   1 o  823.582    1147.970   180.00   3.05236   2.55
   0   1  -4 o   3.683      5.295     180.00   3.04918   0.01
   2  -1   1 o  704.569    984.169    180.00   3.04741   2.19
   0   0   5 o  -0.014      0.055     180.00   3.02703   0.00
   2   0   3 o   0.007      0.104     180.00   3.02616   0.00
   2  -1  -2 o  6363.359   6355.302    0.00    2.95828  17.93
   2   1  -2 o  7734.094   7733.019   180.00   2.95740  21.79
   1  -1  -4 o  1449.433   1567.140   180.00   2.90185   3.89
   1   1  -4 o  1231.483   1284.913    0.00    2.89636   3.29
   1   0  -5 o  140.319    128.699     0.00    2.88932   0.38
   2   1   2 o  13761.554  13494.602  180.00   2.85762  36.18
   2  -1   2 o  10730.777  10890.020   0.00    2.85195  28.19
   2   0  -4 o  1511.821   1177.825   180.00   2.82782   3.79
   1   1   4 o  5016.429   5003.297    0.00    2.80550  12.68
   1  -1   4 o  3794.810   3895.262   180.00   2.79824   9.58
   1   0   5 o  180.137    333.715    180.00   2.77043   0.45
   2  -1  -3 o  4608.429   4049.930   180.00   2.73256  10.95
   2   1  -3 o  1476.070   1304.476   180.00   2.73046   3.52
   2   0   4 o  424.353    442.498     0.00    2.65506   1.00
   3   0   0 o  2764.571   3030.977   180.00   2.64333   6.28
   3   0  -1 o  249.014    173.885    180.00   2.63218   0.54
   0   1   5 o  1517.694   1279.108   180.00   2.61515   3.28
   2   1   3 o  1517.579   1338.040    0.00    2.61428   3.15
   0   1  -5 o  302.593    281.278    180.00   2.60896   0.65
   2  -1   3 o  2948.397   2727.279    0.00    2.60870   6.25
   0   2   0 o  21397.512  21196.639  180.00   2.58434  45.27
   3   0   1 o  12.693     14.802      0.00    2.57654   0.03
   0   2   1 o  329.223    325.900    180.00   2.54862   0.63
   0   2  -1 o  451.807    469.514     0.00    2.54632   0.87
   3   0  -2 o  3224.102   3377.978   180.00   2.54592   6.57
   1  -1  -5 o   1.219      0.705     180.00   2.52439   0.00
   0   0   6 o  3110.600   2585.632   180.00   2.52253   6.30
   1   1  -5 o   9.946      9.812     180.00   2.51966   0.02
   2   0  -5 o  25.900     26.436     180.00   2.48267   0.05
   2  -1  -4 o  8459.854   8638.683   180.00   2.48213  16.67
   2   1  -4 o  8270.037   8423.242    0.00    2.47949  16.25
   1   2   0 o  270.963    298.663    180.00   2.45793   0.55
   1  -2   0 o  566.110    628.365    180.00   2.45637   1.11
   1   0  -6 o  106.348    118.112     0.00    2.44884   0.17
   3   0   2 o  579.566    650.477    180.00   2.44791   1.15
   0   2   2 o  1040.964   1160.189    0.00    2.44770   1.99
   1   1   5 o   9.131     10.739      0.00    2.44470   0.03
   0   2  -2 o  1053.756   1220.888    0.00    2.44363   2.00
   1  -1   5 o  55.622     84.938      0.00    2.43888   0.11
   1  -2  -1 o  58.421     86.275     180.00   2.43316   0.11
   1   2  -1 o   0.008      0.019      0.00    2.43268   0.00
   1   2   1 o  174.803    152.390     0.00    2.41966   0.31
   1  -2   1 o  221.351    189.216    180.00   2.41622   0.39
   3   0  -3 o  -2.599     161.852     0.00    2.40454   0.00
   2   1   4 o  1323.407   1694.321    0.00    2.36422   2.46
   1   0   6 o  870.084    1068.627   180.00   2.36123   1.53
   2  -1   4 o  421.619    509.529    180.00   2.35918   0.82
   3   1   0 o  2598.552   2841.932   180.00   2.35445   4.62
   3  -1   0 o  243.972    245.342     0.00    2.35240   0.48
   1  -2  -2 o  844.500    823.111    180.00   2.35169   1.46
   1   2  -2 o  1613.215   1452.501   180.00   2.34944   2.77
   3   1  -1 o  414.545    360.607    180.00   2.34611   0.66
   3  -1  -1 o  1787.072   1532.762   180.00   2.34498   3.00
   1   2   2 o  2747.378   2426.746   180.00   2.32616   4.64
   2   0   5 o  40.143     36.062     180.00   2.33605   0.07
   1  -2   2 o  2376.344   1900.201   180.00   2.32135   3.97
   3   1   1 o  3245.915   3055.493    0.00    2.30731   5.26
   3  -1   1 o  3004.223   2890.427    0.00    2.30453   4.96
   0   2   3 o  72.098     61.186     180.00   2.30266   0.12
   0   2  -3 o  33.002     19.000      0.00    2.29759   0.05
   3   1  -2 o   0.918      1.552     180.00   2.28400   0.00
   3  -1  -2 o  366.998    592.798     0.00    2.28378   0.54
   3   0   3 o   5.210      9.305      0.00    2.28301   0.01
   0   1   6 o  252.104    124.884    180.00   2.26939   0.38
   0   1  -6 o  140.506    59.481      0.00    2.26454   0.21
   2  -1  -5 o  300.302    238.584     0.00    2.23925   0.45
   2   1  -5 o   8.191      7.091      0.00    2.23654   0.01
   3   0  -4 o  3380.816   3115.102   180.00   2.23404   5.05
   1  -2  -3 o  722.458    728.030    180.00   2.22797   1.05
   1   2  -3 o  1131.627   1177.901    0.00    2.22454   1.67
   1  -1  -6 o  1144.598   1132.742    0.00    2.21500   1.64
   3   1   2 o  85.986     83.021      0.00    2.21394   0.13
   1   1  -6 o  727.642    691.496    180.00   2.21105   1.03
   3  -1   2 o   0.035      0.026     180.00   2.21073   0.00
   1   2   3 o  158.030    301.734    180.00   2.19504   0.24
   2   0  -6 o  -0.451      0.006     180.00   2.19180   0.00
   1  -2   3 o  173.013    173.807     0.00    2.18954   0.24
   3  -1  -3 o  781.638    798.834     0.00    2.18043   1.15
   3   1  -3 o  1712.014   1754.083    0.00    2.17990   2.47
   2   2   0 o  4143.093   3648.884    0.00    2.16612   5.78
   2  -2   0 o  4358.295   3949.501    0.00    2.16399   6.09
   0   0   7 o  167.953    155.709    180.00   2.16217   0.24
   2   2  -1 o  1279.356   1239.545    0.00    2.15400   1.80
   2  -2  -1 o  1429.401   1396.211   180.00   2.15329   1.97
   1   1   6 o   3.569      3.327     180.00   2.15006   0.00
   1  -1   6 o  76.904     50.760      0.00    2.14541   0.09
   0   2   4 o  174.714    92.451     180.00   2.13678   0.23
   2   2   1 o  54.775     37.181      0.00    2.13466   0.07
   0   2  -4 o  233.934    249.815    180.00   2.13138   0.31
   2  -2   1 o   0.737      0.808      0.00    2.13128   0.00
   2   1   5 o  2729.559   3051.237   180.00   2.13091   3.76
   2  -1   5 o  2767.099   3226.704   180.00   2.12655   3.80
   1   0  -7 o  288.136    136.079    180.00   2.12021   0.38
   3   0   4 o  7009.376   6956.106   180.00   2.10553   9.22
   2  -2  -2 o  893.736    710.265    180.00   2.10106   1.16
   2   2  -2 o  2151.440   1619.432   180.00   2.10043   2.79
   3   1   3 o  785.537    854.459     0.00    2.09003   1.04
   3  -1   3 o  619.480    760.212     0.00    2.08670   0.83
   1  -2  -4 o  313.824    283.479     0.00    2.08142   0.44
   1   2  -4 o  104.583    77.820      0.00    2.07737   0.16
   2   0   6 o  189.908    146.514    180.00   2.07005   0.23
   2   2   2 o  330.140    302.189     0.00    2.06499   0.43
   2  -2   2 o  246.807    214.920     0.00    2.06071   0.31
   3   0  -5 o  111.916    114.475    180.00   2.05628   0.14
   1   0   7 o   0.168      0.172      0.00    2.05343   0.00
   3  -1  -4 o  1798.605   1831.305   180.00   2.05120   2.30
   3   1  -4 o  1483.695   1505.040    0.00    2.05016   1.90
   1   2   4 o  74.863     82.068     180.00   2.04544   0.08
   1  -2   4 o   0.038      0.879     180.00   2.03981   0.00
   2  -1  -6 o  1918.395   2115.942    0.00    2.01915   2.32
   2   1  -6 o  1501.611   1675.368   180.00   2.01659   1.82
   2  -2  -3 o  105.352    119.868     0.00    2.01572   0.13
   2   2  -3 o   6.231      7.222      0.00    2.01403   0.01
   0   1   7 o  901.923    898.606    180.00   1.99660   1.09
   0   1  -7 o  1299.603   1304.699   180.00   1.99275   1.54
   4   0   0 o  3301.055   3436.235   180.00   1.98249   3.94
   4   0  -1 o  145.060    147.936     0.00    1.98185   0.18
   0   2   5 o  1839.592   1314.455    0.00    1.96811   2.10
   2   2   3 o  392.257    280.918     0.00    1.96761   0.45
   1  -1  -7 o  400.824    327.998     0.00    1.96322   0.46
   2  -2   3 o  22.507     18.952     180.00   1.96285   0.03
   0   2  -5 o  2313.291   1959.494   180.00   1.96284   2.62
   1   1  -7 o  636.774    582.348     0.00    1.95995   0.74
   3   1   4 o  37.699     29.614     180.00   1.95156   0.04
   2   0  -7 o  60.046     54.600      0.00    1.95065   0.07
   4   0   1 o   9.035      9.149      0.00    1.94994   0.01
   3  -1   4 o  153.164    180.784     0.00    1.94833   0.17
   4   0  -2 o  456.745    557.639     0.00    1.94811   0.58
   3   0   5 o  161.744    139.242    180.00   1.93164   0.18
   1  -2  -5 o  1163.728   1129.724    0.00    1.92835   1.24
   1   2  -5 o  1503.899   1689.402   180.00   1.92413   1.62
   2   1   6 o  494.393    561.776     0.00    1.92352   0.54
   2  -1   6 o  546.076    531.545    180.00   1.91982   0.59
   3  -1  -5 o  19.006     19.943      0.00    1.91130   0.02
   1   1   7 o   7.126      7.926     180.00   1.91022   0.01
   3   1  -5 o  631.596    719.523     0.00    1.90997   0.69
   2  -2  -4 o  93.530     112.099     0.00    1.90889   0.11
   2   2  -4 o  293.077    355.435     0.00    1.90649   0.33
   1  -1   7 o  161.832    192.841    180.00   1.90648   0.17
   1   2   5 o  95.507     87.241      0.00    1.89247   0.09
   0   0   8 o  21467.375  20378.080   0.00    1.89190  22.61
   4   0   2 o  318.311    376.656     0.00    1.88882   0.34
   1  -2   5 o  53.169     62.911     180.00   1.88708   0.05
   4   0  -3 o   2.705      3.342     180.00   1.88605   0.00
   3   0  -6 o   2.723      3.574      0.00    1.88521   0.00
   1   0  -8 o  1367.532   1374.956    0.00    1.86700   1.39
   2   2   4 o  354.966    292.766    180.00   1.85434   0.35
   4   1   0 o  1035.701   1056.120   180.00   1.85167   1.04
   4   1  -1 o  348.919    370.051    180.00   1.85093   0.36
   4  -1   0 o  660.890    713.340     0.00    1.85034   0.66
   4  -1  -1 o  434.974    472.918    180.00   1.85004   0.44
   2   0   7 o  140.380    153.103    180.00   1.84990   0.14
   2  -2   4 o  620.668    678.194    180.00   1.84948   0.62
   3   2   0 o  1949.818   2130.563    0.00    1.84890   1.95
   3  -2   0 o  2725.361   2925.086    0.00    1.84691   2.72
   3   2  -1 o  1105.041   1132.239    0.00    1.84464   1.08
   3  -2  -1 o  1185.502   1179.877   180.00   1.84353   1.16
   2  -1  -7 o  1077.326   1133.359   180.00   1.82616   1.07
   3   2   1 o  257.078    272.425    180.00   1.82602   0.25
   4   1   1 o  73.306     80.330     180.00   1.82528   0.07
   2   1  -7 o  485.434    539.274    180.00   1.82385   0.47
   4  -1   1 o  262.926    291.561    180.00   1.82358   0.26
   3  -2   1 o  140.760    154.465     0.00    1.82326   0.14
   4   1  -2 o  1512.832   1651.923    0.00    1.82315   1.44
   4  -1  -2 o  2111.007   2263.438   180.00   1.82271   2.02
   1   0   8 o  519.853    552.102    180.00   1.81461   0.52
   3   2  -2 o  18.187     20.763     180.00   1.81378   0.02
   3  -2  -2 o   3.111      3.635     180.00   1.81356   0.00
   3   1   5 o  120.045    153.245     0.00    1.81091   0.12
   3  -1   5 o  438.807    374.546     0.00    1.80792   0.43
   0   2   6 o  5075.365   4064.909    0.00    1.80761   4.89
   4   0   3 o   3.048      1.971     180.00   1.80679   0.00
   4   0  -4 o  36.225     21.821      0.00    1.80340   0.04
   0   2  -6 o  4092.324   3202.430    0.00    1.80271   3.92
   2  -2  -5 o   8.667      6.311      0.00    1.79177   0.01
   2   2  -5 o  129.361    142.872     0.00    1.78899   0.12
   1  -2  -6 o  82.070     83.685      0.00    1.77961   0.08
   3   2   2 o  495.931    502.806     0.00    1.77887   0.46
   0   1   8 o  680.365    678.296    180.00   1.77818   0.64
   3  -2   2 o  509.413    476.717     0.00    1.77555   0.47
   1   2  -6 o  507.921    475.186     0.00    1.77552   0.47
   0   1  -8 o  517.888    484.526     0.00    1.77507   0.49
   4   1   2 o   7.329      6.739     180.00   1.77505   0.01
   4  -1   2 o  620.082    610.143    180.00   1.77310   0.54
   3  -1  -6 o  1735.447   1776.231   180.00   1.77181   1.59
   4   1  -3 o  398.678    408.071    180.00   1.77178   0.36
   4  -1  -3 o  533.926    547.212    180.00   1.77177   0.50
   3   1  -6 o  2743.776   2802.363    0.00    1.77037   2.51
   3   0   6 o  3667.067   3690.679    0.00    1.77004   3.33
   3  -2  -3 o  46.672     52.447     180.00   1.76068   0.04
   3   2  -3 o  467.962    524.265    180.00   1.76012   0.41
   1  -1  -8 o  507.182    404.359     0.00    1.75732   0.46
   1   1  -8 o  427.152    329.565    180.00   1.75460   0.39
   2   0  -8 o  4090.061   4328.667    0.00    1.75091   3.62
   1   2   6 o  766.266    567.225     0.00    1.74568   0.65
   2   1   7 o  38.842     24.667     180.00   1.74327   0.03
   1  -2   6 o  650.015    634.063     0.00    1.74071   0.55
   2  -1   7 o  188.626    212.725    180.00   1.74014   0.17
   2   2   5 o   4.102      3.398     180.00   1.73534   0.00
   2  -2   5 o   3.331     27.894      0.00    1.73064   0.00
   3   0  -7 o  18.019     34.519      0.00    1.72781   0.02
   0   3   0 o  14.922     12.641     180.00   1.72289   0.01
   1   1   8 o  26.881     18.493     180.00   1.71369   0.02
   3   2   3 o  405.124    304.407    180.00   1.71283   0.34
   0   3   1 o  745.807    585.254     0.00    1.71236   0.62
   4   0   4 o  75.857     61.046     180.00   1.71226   0.06
   0   3  -1 o  230.423    197.398     0.00    1.71132   0.19
   1  -1   8 o  39.413     36.099     180.00   1.71064   0.03
   3  -2   3 o  1427.519   1465.024    0.00    1.70917   1.19
   4   0  -5 o  555.390    592.420     0.00    1.70855   0.46
   4   1   3 o  69.281     78.260      0.00    1.70662   0.05
   4  -1   3 o  455.560    550.372     0.00    1.70455   0.38
   4  -1  -4 o   0.861      1.152     180.00   1.70290   0.00
   4   1  -4 o  289.110    330.045     0.00    1.70257   0.25
   3  -2  -4 o  324.028    274.964    180.00   1.69067   0.28
   3   2  -4 o  597.541    531.736    180.00   1.68951   0.50
   1   3   0 o  6912.489   6457.947    0.00    1.68399   5.58
   1  -3   0 o  7215.959   6378.389   180.00   1.68324   5.82
   0   0   9 o  42.505     33.106      0.00    1.68169   0.03
   0   3   2 o  110.440    78.669     180.00   1.68089   0.09
   0   3  -2 o  197.688    131.347     0.00    1.67892   0.16
   3   1   6 o  4897.736   4419.207    0.00    1.67592   3.96
   1  -3  -1 o  50.371     45.807     180.00   1.67588   0.04
   1   3  -1 o  201.511    186.872    180.00   1.67564   0.15
   3  -1   6 o  3140.067   2755.843   180.00   1.67322   2.54
   2  -2  -6 o  2152.330   1863.217    0.00    1.67303   1.69
   1   3   1 o  554.506    424.138     0.00    1.67169   0.42
   2   2  -6 o  1555.418   1082.432    0.00    1.67012   1.21
   1  -3   1 o  308.638    216.004     0.00    1.66999   0.24
   2   0   8 o  595.156    412.588     0.00    1.66713   0.47
   1   0  -9 o   1.074      0.764     180.00   1.66655   0.00
   0   2   7 o   6.168      2.655      0.00    1.66054   0.00
   2  -1  -8 o   8.722      3.589     180.00   1.65937   0.01
   2   1  -8 o  84.771     57.474      0.00    1.65732   0.07
   0   2  -7 o  359.643    347.925     0.00    1.65611   0.29
   1  -3  -2 o  53.179     24.585      0.00    1.64870   0.04
   1   3  -2 o  366.376    180.689    180.00   1.64754   0.28
   1  -2  -7 o  907.760    775.537    180.00   1.64107   0.69
   1   3   2 o  478.106    433.887     0.00    1.64006   0.36
   3  -1  -7 o  1410.020   1313.600    0.00    1.63940   1.09
   3   1  -7 o  255.587    249.572     0.00    1.63796   0.20
   1  -3   2 o  443.767    437.654    180.00   1.63753   0.34
   1   2  -7 o  1367.934   1354.362    0.00    1.63726   1.04
   3   2   4 o  20.548     18.647      0.00    1.63424   0.01
   0   3   3 o  227.868    231.758     0.00    1.63180   0.17
   3  -2   4 o  337.885    379.062     0.00    1.63046   0.24
   0   3  -3 o  369.520    453.621     0.00    1.62909   0.28
   4   1   4 o  659.804    812.221     0.00    1.62644   0.49
   1   0   9 o  26.864     24.644      0.00    1.62445   0.02
   4  -1   4 o   0.178      0.133      0.00    1.62434   0.00
   3   0   7 o  177.148    154.594     0.00    1.62418   0.13
   4  -1  -5 o  15.277     10.536     180.00   1.62251   0.01
   4   1  -5 o  425.831    298.379     0.00    1.62193   0.30
   2   2   6 o  114.485    60.708      0.00    1.61786   0.08
   2  -2   6 o  193.391    180.775     0.00    1.61346   0.14
   4   0   5 o  300.621    318.007    180.00   1.61254   0.22
   1   2   7 o   0.238      0.267     180.00   1.60995   0.00
   3  -2  -5 o  1105.985   1189.587    0.00    1.60987   0.80
   4   0  -6 o  8956.097   9440.920    0.00    1.60876   6.58
   3   2  -5 o   0.958      0.997      0.00    1.60829   0.00
   1  -2   7 o   7.776      6.348      0.00    1.60548   0.01
   1  -3  -3 o  18.205     14.225      0.00    1.60445   0.01
   1   3  -3 o  182.846    170.328     0.00    1.60253   0.13
   0   1   9 o  25.831     84.109      0.00    1.60045   0.02
   0   1  -9 o  -3.670     26.947     180.00   1.59789   0.00
   1   3   3 o  17.874     87.788     180.00   1.59223   0.02
   1  -3   3 o  373.833    587.361    180.00   1.58908   0.28
   2   1   8 o  123.574    203.937     0.00    1.58796   0.09
   5   0  -1 o  17.226     28.308     180.00   1.58776   0.01
   1  -1  -9 o  248.067    412.534     0.00    1.58729   0.18
   3   0  -8 o  39.295     64.839     180.00   1.58650   0.03
   5   0   0 o  55.682     89.928     180.00   1.58600   0.05
   2  -1   8 o  425.671    608.346    180.00   1.58532   0.30
   1   1  -9 o  19.268     27.382      0.00    1.58500   0.02
   2   0  -9 o  112.126    146.845    180.00   1.58450   0.08
   2   3   0 o  63.115     45.771      0.00    1.58078   0.05
   2  -3   0 o  464.894    294.751    180.00   1.57954   0.32
   2   3  -1 o  173.884    117.828    180.00   1.57592   0.12
   2  -3  -1 o  406.825    290.936    180.00   1.57550   0.28
   4   2   0 o  10373.199  9110.696    0.00    1.57379   7.23
   4   2  -1 o  367.309    337.384     0.00    1.57320   0.25
   5   0  -2 o  527.161    500.105    180.00   1.57229   0.37
   4  -2   0 o  5073.680   4825.578    0.00    1.57216   3.56
   4  -2  -1 o  4428.340   4217.177   180.00   1.57211   3.07
   0   3   4 o  760.053    760.053    180.00   1.56961   0.52
   2   3   1 o  449.182    484.188     0.00    1.56857   0.31
   5   0   1 o  473.251    584.384     0.00    1.56715   0.33
   2  -3   1 o  719.570    938.883     0.00    1.56655   0.51
   0   3  -4 o  38.933     51.997      0.00    1.56639   0.03
   2  -2  -7 o  251.596    229.243     0.00    1.55837   0.17
   4   2   1 o  79.542     75.961     180.00   1.55762   0.05
   4   2  -2 o  844.390    875.150    180.00   1.55591   0.58
   4  -2   1 o  306.650    318.455     0.00    1.55552   0.21
   2   2  -7 o  274.870    285.446    180.00   1.55549   0.19
   4  -2  -2 o  336.861    350.315    180.00   1.55537   0.24
   2  -3  -2 o  2076.909   2147.477   180.00   1.55483   1.40
   2   3  -2 o  2942.621   3034.851    0.00    1.55444   1.99
   1   1   9 o  927.325    1272.055    0.00    1.55098   0.63
   3   1   7 o   2.862      4.100     180.00   1.55068   0.00
   3   2   5 o  31.172     52.158     180.00   1.54908   0.02
   1  -1   9 o  73.621     113.726     0.00    1.54846   0.05
   3  -1   7 o  1142.299   1762.660   180.00   1.54829   0.78
   1  -3  -4 o  171.430    219.222     0.00    1.54717   0.12
   3  -2   5 o  89.258     78.485      0.00    1.54535   0.06
   1   3  -4 o   8.068      6.707     180.00   1.54467   0.01
   5   0  -3 o  480.810    439.639     0.00    1.54104   0.32
   2   3   2 o  7044.800   6197.772    0.00    1.54042   4.64
   4   1   5 o  55.265     48.461     180.00   1.54038   0.04
   4  -1   5 o  1066.080   848.140    180.00   1.53835   0.70
   2  -3   2 o  7151.904   5747.459   180.00   1.53775   4.68
   4  -1  -6 o  2178.793   1866.358   180.00   1.53645   1.41
   4   1  -6 o  630.757    576.129     0.00    1.53570   0.41
   5   0   2 o  6410.338   7344.225   180.00   1.53300   4.28
   1   3   4 o  1590.288   1735.509   180.00   1.53241   1.04
   1  -3   4 o  2271.527   1910.148    0.00    1.52885   1.47
   0   2   8 o  3166.219   2639.296   180.00   1.52854   2.06
   4   2   2 o  394.378    312.232     0.00    1.52618   0.26
   0   2  -8 o  2465.377   2227.910   180.00   1.52459   1.61
   3  -2  -6 o  239.449    226.340     0.00    1.52396   0.15
   4  -2   2 o  254.564    241.917     0.00    1.52371   0.17
   4   2  -3 o  90.883     86.721     180.00   1.52349   0.06
   4  -2  -3 o  396.668    377.798     0.00    1.52348   0.26
   3   2  -6 o  289.075    256.628     0.00    1.52213   0.18
   2  -3  -3 o  3162.926   2467.440    0.00    1.51939   2.02
   2   3  -3 o  893.569    709.099     0.00    1.51831   0.58
   5   1  -1 o  763.518    617.633    180.00   1.51810   0.47
   5  -1  -1 o  16.563     13.962     180.00   1.51743   0.01
   3  -1  -8 o  5079.660   4216.589    0.00    1.51736   3.25
   5   1   0 o  519.950    450.187     0.00    1.51668   0.34
   3   1  -8 o  5373.534   4927.395   180.00   1.51597   3.44
   2  -1  -9 o  215.420    200.537     0.00    1.51582   0.13
   5  -1   0 o  1203.772   1123.711   180.00   1.51576   0.77
   1  -2  -8 o  1056.262   1042.914   180.00   1.51514   0.69
   2   0   9 o  260.533    276.333     0.00    1.51426   0.17
   2   1  -9 o  197.394    211.714     0.00    1.51401   0.12
   0   0  10 o   5.861      6.378     180.00   1.51352   0.00
   4   0   6 o  5400.358   5868.644    0.00    1.51308   3.51
   1   2  -8 o  468.928    427.461    180.00   1.51165   0.30
   4   0  -7 o  611.502    408.167    180.00   1.50939   0.38
   2   2   7 o  1415.561   1180.042    0.00    1.50625   0.89
   5   1  -2 o  1044.617   808.502     0.00    1.50445   0.64
   1   0 -10 o  869.611    656.121     0.00    1.50424   0.55
   5  -1  -2 o  283.719    212.981    180.00   1.50403   0.17
   2  -2   7 o  1010.586   686.200    180.00   1.50223   0.61
   5   1   1 o  149.470    92.462      0.00    1.50029   0.09
   5  -1   1 o  1202.148   726.603     0.00    1.49917   0.74
   0   3   5 o  119.507    73.105     180.00   1.49910   0.07
   2   3   3 o  1555.185   939.004    180.00   1.49882   0.95
   5   0  -4 o  5865.952   3997.367    0.00    1.49672   3.61
   2  -3   3 o  4020.785   3214.782   180.00   1.49567   2.47
   0   3  -5 o  229.466    185.304    180.00   1.49560   0.14
   3   0   8 o  1733.822   1588.527   180.00   1.49452   1.08
   1   2   8 o  114.507    197.090     0.00    1.48708   0.07
   5   0   3 o  480.676    829.460    180.00   1.48643   0.31
   1  -2   8 o  213.171    316.320     0.00    1.48310   0.14
   4   2   3 o  11.338     16.843      0.00    1.48215   0.01
   1  -3  -5 o  12.784     15.948      0.00    1.48122   0.01
   4  -2   3 o  141.814    165.048     0.00    1.47943   0.08
   4  -2  -4 o  84.347     100.232    180.00   1.47914   0.05
   4   2  -4 o  385.948    464.464    180.00   1.47870   0.23
   1   3  -5 o   0.101      0.190      0.00    1.47835   0.00
   5   1  -3 o  758.050    921.651     0.00    1.47688   0.46
   5  -1  -3 o  74.261     89.434      0.00    1.47671   0.05
   2  -3  -4 o  6218.406   5519.972    0.00    1.47215   3.74
   2   3  -4 o  6293.085   5790.845   180.00   1.47050   3.79
   5   1   2 o  1877.767   1737.933    0.00    1.47035   1.13
   1   0  10 o  2479.831   2334.884    0.00    1.46972   1.47
   5  -1   2 o  2937.106   2735.025   180.00   1.46908   1.75
   1   3   5 o  72.512     49.803     180.00   1.46493   0.04
   3   2   6 o  3684.306   3742.436   180.00   1.46214   2.20
   3   0  -9 o  164.652    164.428    180.00   1.46120   0.10
   1  -3   5 o  306.993    306.335    180.00   1.46118   0.18
   3  -2   6 o  3324.642   3575.901   180.00   1.45857   1.97
   2   1   9 o  18.907     22.579      0.00    1.45430   0.01
   0   1  10 o  95.474     126.994    180.00   1.45359   0.06
   4   1   6 o  31.140     45.424     180.00   1.45310   0.02
   2  -1   9 o  53.605     82.365     180.00   1.45206   0.04
   0   1 -10 o  142.941    211.256     0.00    1.45146   0.09
   4  -1   6 o  46.666     70.145      0.00    1.45118   0.03
   2  -2  -8 o   4.918      7.038     180.00   1.45093   0.00
   4  -1  -7 o  57.101     79.908     180.00   1.44929   0.03
   4   1  -7 o  99.264     138.456    180.00   1.44845   0.06
   2   2  -8 o   6.683      8.786      0.00    1.44818   0.00
   2   3   4 o  4988.156   5920.491   180.00   1.44700   2.94
   1  -1 -10 o   4.281      3.990     180.00   1.44529   0.00
   2   0 -10 o  2265.836   2019.413    0.00    1.44466   1.33
   3   3   0 o  9178.960   7922.821    0.00    1.44408   5.27
   2  -3   4 o  5045.930   4209.113    0.00    1.44354   2.90
   1   1 -10 o  41.392     33.934      0.00    1.44335   0.02
   5   0  -5 o  14.355     10.667     180.00   1.44272   0.01
   3  -3   0 o  3202.425   2486.468   180.00   1.44266   1.83
   3   3  -1 o   0.107      0.057     180.00   1.44194   0.00
   3  -3  -1 o  1809.350   1257.170    0.00    1.44115   1.02
   5  -1  -4 o  194.222    140.594     0.00    1.43768   0.11
   5   1  -4 o  228.110    165.693    180.00   1.43763   0.13
   3  -2  -7 o  137.219    96.602     180.00   1.43734   0.08
   3   1   8 o  478.121    320.768    180.00   1.43676   0.27
   3   2  -7 o  77.920     46.155     180.00   1.43539   0.04
   3  -1   8 o  318.072    193.150    180.00   1.43465   0.17
   3   3   1 o  998.411    707.255    180.00   1.43320   0.55
   3  -3   1 o  2146.063   2288.265   180.00   1.43120   1.22
   5   0   4 o  4151.898   4535.433    0.00    1.43090   2.33
   5   1   3 o  533.401    483.901     0.00    1.42922   0.30
   4   2   4 o   0.029      0.010     180.00   1.42881   0.00
   5  -1   3 o   1.952      1.372      0.00    1.42785   0.00
   3   3  -2 o  1041.007   689.329    180.00   1.42696   0.58
   3  -3  -2 o  328.649    216.075     0.00    1.42679   0.18
   4  -2   4 o  122.161    83.667      0.00    1.42597   0.07
   4  -2  -5 o  105.626    75.322      0.00    1.42564   0.06
   4   2  -5 o  475.880    371.874    180.00   1.42484   0.26
   0   3   6 o  21.982     18.539      0.00    1.42452   0.01
   0   3  -6 o  103.892    113.243     0.00    1.42092   0.06
   4   0   7 o  623.144    644.675     0.00    1.41741   0.34
   2  -3  -5 o  1254.124   1228.764   180.00   1.41648   0.69
   1   1  10 o  6797.557   6060.905   180.00   1.41474   3.72
   2   3  -5 o  380.362    336.392    180.00   1.41442   0.21
   4   0  -8 o  6373.176   5613.931   180.00   1.41391   3.47
   1  -1  10 o  5704.321   5155.169    0.00    1.41263   3.11
   0   2   9 o  30.576     27.645      0.00    1.41129   0.02
   1  -3  -6 o  112.790    99.563      0.00    1.41062   0.07
   3   3   2 o  138.205    121.231    180.00   1.41016   0.07
   0   2  -9 o  10.629     10.900     180.00   1.40779   0.01
   3  -3   2 o  72.665     76.025     180.00   1.40767   0.04
   1   3  -6 o  222.192    237.962    180.00   1.40757   0.13
   3  -1  -9 o   9.233     11.729     180.00   1.40674   0.00
   3   1  -9 o  139.659    233.284     0.00    1.40544   0.08
   2   2   8 o  386.703    490.078     0.00    1.40275   0.21
   1  -2  -9 o  60.018     71.311     180.00   1.40216   0.03
   3  -3  -3 o  336.679    370.396    180.00   1.40071   0.18
   3   3  -3 o  228.396    253.979    180.00   1.40029   0.12
   2  -2   8 o  222.801    263.203     0.00    1.39912   0.12
   1   2  -9 o  176.633    209.966     0.00    1.39902   0.09
   1   3   6 o  143.515    116.383    180.00   1.39369   0.08
   2  -1 -10 o  4889.727   3531.240    0.00    1.39213   2.58
   2   1 -10 o  5920.542   4692.002   180.00   1.39054   3.12
   1  -3   6 o  25.070     20.302      0.00    1.38989   0.02
   5  -1  -5 o  440.677    371.927     0.00    1.38972   0.23
   5   1  -5 o   6.512      5.566     180.00   1.38949   0.00
   2   3   5 o  509.181    425.457     0.00    1.38839   0.27
   2   0  10 o  1693.639   1865.227   180.00   1.38521   0.89
   2  -3   5 o  1202.383   1381.759    0.00    1.38477   0.64
   5   0  -6 o  589.238    643.467    180.00   1.38250   0.32
   1   2   9 o   8.985     17.084      0.00    1.37708   0.00
   3   2   7 o   5.754     12.148     180.00   1.37683   0.00
   3   3   3 o  30.140     53.669      0.00    1.37666   0.02
   0   0  11 o  26.469     40.290      0.00    1.37592   0.01
   3   0   9 o  56.113     98.947      0.00    1.38003   0.03
   5   1   4 o  145.701    292.116    180.00   1.37974   0.08
   5  -1   4 o  152.623    452.781     0.00    1.37832   0.09
   3  -3   3 o  16.895     37.192     180.00   1.37381   0.01
   1  -2   9 o   6.168     12.553     180.00   1.37356   0.00
   3  -2   7 o  75.141     183.637    180.00   1.37348   0.04
   1   0 -11 o  19.431     28.989      0.00    1.37029   0.01
   5   0   5 o  218.922    296.541     0.00    1.36981   0.11
   4   2   5 o   7.733     10.510      0.00    1.36949   0.00
   4   1   7 o  522.588    642.138    180.00   1.36783   0.27
   4  -2   5 o  254.300    281.121     0.00    1.36664   0.13
   4  -2  -6 o  1191.071   1265.546   180.00   1.36628   0.61
   4  -1   7 o  70.411     73.009     180.00   1.36606   0.04
   4   2  -6 o  612.661    591.636    180.00   1.36523   0.32
   3  -3  -4 o  529.018    498.011     0.00    1.36477   0.27
   4  -1  -8 o  2512.975   2322.096    0.00    1.36424   1.28
   3   3  -4 o  410.707    373.592    180.00   1.36385   0.21
   4   1  -8 o  2397.201   2134.248   180.00   1.36337   1.22
   2  -3  -6 o  899.526    1229.246   180.00   1.35568   0.45
   2   3  -6 o  671.485    674.451     0.00    1.35335   0.33
   5   2  -1 o  240.714    241.016    180.00   1.35332   0.12
   3  -2  -8 o  121.138    118.638     0.00    1.35304   0.06
   5   2   0 o  237.213    223.816     0.00    1.35239   0.12
   5  -2  -1 o  11.531     10.905     180.00   1.35236   0.01
   2  -2  -9 o  792.665    741.699    180.00   1.35210   0.39
   5  -2   0 o  77.648     72.560      0.00    1.35110   0.04
   3   2  -8 o  14.962     14.108      0.00    1.35108   0.01
   3   0 -10 o  1470.955   1384.582   180.00   1.35067   0.74
   2   2  -9 o  1726.620   1601.908    0.00    1.34954   0.84
   0   3   7 o  217.433    196.773     0.00    1.34922   0.11
   0   3  -7 o  1042.943   853.790     0.00    1.34565   0.51
   5   2  -2 o  457.447    329.471    180.00   1.34353   0.22
   5  -2  -2 o  581.524    382.355    180.00   1.34293   0.28
   1   0  11 o  78.380     46.766      0.00    1.34150   0.04
   5   2   1 o  538.440    352.211    180.00   1.34082   0.26
   5  -2   1 o  121.279    104.015    180.00   1.33923   0.06
   2   1  10 o  9727.146   8644.684   180.00   1.33895   4.75
   1  -3  -7 o  198.975    182.652    180.00   1.33865   0.10
   2  -1  10 o  7541.021   7558.559    0.00    1.33704   3.70
   5  -1  -6 o   1.951      2.061     180.00   1.33573   0.00
   1   3  -7 o  250.529    270.780    180.00   1.33554   0.13
   5   1  -6 o  12.302     13.357      0.00    1.33537   0.01
   3   3   4 o  98.418     111.439     0.00    1.33494   0.05
   3   1   9 o  605.592    726.249     0.00    1.33425   0.30
   3  -1   9 o  699.472    918.930     0.00    1.33240   0.34
   3  -3   4 o  16.347     21.329     180.00   1.33184   0.01
   0   1  11 o  35.658     40.815     180.00   1.33052   0.02
   0   1 -11 o   3.237      3.699      0.00    1.32872   0.00
   4   0   8 o  182.015    245.706    180.00   1.32753   0.09
   2   3   6 o  200.391    284.334    180.00   1.32606   0.10
   2   0 -11 o  12.310     17.121     180.00   1.32602   0.01
   1  -1 -11 o  273.153    350.221     0.00    1.32536   0.14
   5   1   5 o  406.543    474.615     0.00    1.32480   0.20
   4   0  -9 o  121.992    131.474     0.00    1.32427   0.06
   6   0  -1 o  730.726    745.682     0.00    1.32390   0.35
   1   1 -11 o   7.792      7.737     180.00   1.32371   0.00
   5   2  -3 o  75.945     75.381     180.00   1.32371   0.04
   5  -2  -3 o  324.128    310.775    180.00   1.32346   0.16
   5  -1   5 o   1.601      1.524     180.00   1.32339   0.00
   2  -3   6 o  444.850    389.786     0.00    1.32243   0.21
   1   3   7 o  22.154     19.774     180.00   1.32172   0.01
   6   0   0 o  74.491     66.399      0.00    1.32166   0.04
   3  -3  -5 o   3.753      3.456     180.00   1.32127   0.00
   3   3  -5 o  195.975    210.084    180.00   1.31996   0.09
   5   2   2 o  3283.298   3658.293    0.00    1.31940   1.58
   5   0  -7 o  34.656     38.765      0.00    1.31910   0.02
   1  -3   7 o  47.216     49.272      0.00    1.31800   0.02
   5  -2   2 o  3134.055   3087.224    0.00    1.31756   1.49
   6   0  -2 o  1271.834   960.451     0.00    1.31609   0.60
   6   0   1 o  698.304    803.244    180.00   1.30952   0.33
   2   2   9 o  25.939     27.481     180.00   1.30814   0.01
   0   2  10 o  243.878    250.752    180.00   1.30757   0.11
   3  -1 -10 o  2538.676   2587.450    0.00    1.30739   1.19
   4   2   6 o  2543.979   2568.879   180.00   1.30714   1.21
   3   1 -10 o  1959.905   1961.937   180.00   1.30619   0.91
   5   0   6 o  91.282     91.547     180.00   1.30608   0.04
   2  -2   9 o  75.511     79.896     180.00   1.30488   0.04
   0   2 -10 o  84.358     90.292     180.00   1.30448   0.04
   4  -2   6 o  3080.652   3309.614   180.00   1.30435   1.45
   4  -2  -7 o  413.663    446.462     0.00    1.30398   0.20
   4   2  -7 o  80.515     78.808      0.00    1.30276   0.04
   1  -2 -10 o  2452.693   1802.654   180.00   1.30146   1.13
   4   3   0 o  151.091    104.993     0.00    1.30113   0.07
   4   3  -1 o  223.457    146.975    180.00   1.30072   0.10
   4  -3  -1 o  57.425     37.502     180.00   1.29979   0.02
   4  -3   0 o  88.342     57.256     180.00   1.29974   0.04
   1   1  11 o  181.210    120.734     0.00    1.29938   0.08
   6   0  -3 o  57.205     42.687     180.00   1.29874   0.03
   1   2 -10 o  2684.884   2030.993   180.00   1.29864   1.23
   1  -1  11 o  650.440    586.866     0.00    1.29759   0.30
   3   2   8 o  405.272    380.492     0.00    1.29531   0.18
   5  -2  -4 o  4096.460   3835.211   180.00   1.29522   1.89
   5   2  -4 o  6319.817   5908.092   180.00   1.29515   2.92
   2  -3  -7 o  307.928    278.035     0.00    1.29255   0.14
   3  -2   8 o  758.068    682.324     0.00    1.29222   0.34
   0   4   0 o  4974.255   4470.711    0.00    1.29217   2.26
   4   3   1 o  367.259    329.689    180.00   1.29202   0.17
   4   3  -2 o  374.486    327.057    180.00   1.29081   0.17
   4  -3  -2 o  1155.233   992.866     0.00    1.29036   0.52
   4  -3   1 o  45.667     38.879      0.00    1.29022   0.02
   2   3  -7 o  145.536    123.591     0.00    1.29009   0.07
   5   2   3 o  41.715     34.409      0.00    1.28951   0.02
   6   0   2 o  159.118    121.438     0.00    1.28827   0.07
   0   4   1 o  2917.727   2181.337   180.00   1.28778   1.31
   5  -2   3 o  2379.636   1752.420    0.00    1.28750   1.08
   3   3   5 o  354.465    262.309    180.00   1.28737   0.16
   0   4  -1 o  2903.806   2132.056    0.00    1.28719   1.30
   4   1   8 o  20.923     15.660     180.00   1.28661   0.01
   2  -1 -11 o  524.476    437.706    180.00   1.28513   0.24
   4  -1   8 o  40.435     34.640     180.00   1.28498   0.02
   3  -3   5 o  634.890    637.873    180.00   1.28416   0.29
   2   1 -11 o  1331.776   1440.779   180.00   1.28373   0.60
   4  -1  -9 o  33.323     38.540     180.00   1.28327   0.02
   6   1  -1 o  879.566    1027.683   180.00   1.28276   0.40
   4   1  -9 o   3.676      4.549     180.00   1.28240   0.00
   6  -1  -1 o  94.845     109.759    180.00   1.28224   0.04
   6   1   0 o  182.980    210.319     0.00    1.28079   0.08
   6  -1   0 o  300.276    354.659    180.00   1.28013   0.13
   3   0  10 o  1831.060   1992.959   180.00   1.27915   0.83
   1   2  10 o  2377.195   2581.078   180.00   1.27913   1.07
   5  -1  -7 o   0.060      0.000      0.00    1.27837   0.00
   5   1  -7 o  1115.621   968.163     0.00    1.27790   0.49
   1  -2  10 o  1130.357   1075.180   180.00   1.27602   0.50
   6   1  -2 o  184.643    186.779    180.00   1.27558   0.08
   1   4   0 o  1178.594   1193.701    0.00    1.27557   0.53
   0   3   8 o  518.483    525.385     0.00    1.27556   0.23
   2   0  11 o  23.425     24.569     180.00   1.27523   0.01
   6  -1  -2 o  738.172    774.743     0.00    1.27521   0.32
   1  -4   0 o  1412.079   1492.435    0.00    1.27513   0.63
   0   4   2 o  103.806    112.770    180.00   1.27431   0.05
   4   3   2 o  306.577    329.774     0.00    1.27398   0.13
   0   4  -2 o  122.404    131.613    180.00   1.27316   0.06
   6   0  -4 o  952.794    1024.732    0.00    1.27296   0.43
   3  -2  -9 o  225.996    242.410    180.00   1.27293   0.10
   3  -3  -6 o  1436.952   1557.868    0.00    1.27259   0.64
   0   3  -8 o  829.402    918.787    180.00   1.27212   0.37
   4   3  -3 o   0.319      0.360     180.00   1.27205   0.00
   4  -3  -3 o  285.316    318.345     0.00    1.27204   0.13
   1  -4  -1 o  83.844     93.283     180.00   1.27199   0.04
   1   4  -1 o  153.565    172.276     0.00    1.27186   0.07
   4  -3   2 o  119.614    134.508    180.00   1.27182   0.05
   3   2  -9 o  666.045    795.965     0.00    1.27100   0.29
   3   3  -6 o  1655.370   1984.626   180.00   1.27099   0.74
   1   4   1 o  319.907    399.991    180.00   1.27027   0.14
   6   1   1 o  883.933    1121.849   180.00   1.26980   0.39
   1  -4   1 o  392.888    487.054     0.00    1.26927   0.17
   6  -1   1 o  77.638     94.130      0.00    1.26902   0.03
   1  -3  -8 o  113.907    106.447    180.00   1.26769   0.05
   5   1   6 o   0.164      0.143      0.00    1.26697   0.00
   5  -1   6 o  293.712    276.153     0.00    1.26559   0.13
   1   3  -8 o  89.579     103.404     0.00    1.26463   0.04
   2   3   7 o  778.341    793.542    180.00   1.26256   0.34
   2  -2 -10 o  2352.934   2270.989   180.00   1.26219   1.02
   0   0  12 o  2453.805   2213.250    0.00    1.26126   1.07
   1  -4  -2 o  23.817     23.482      0.00    1.26006   0.01
   5  -2  -5 o  1156.161   1167.618    0.00    1.25989   0.51
   2   2 -10 o  3589.553   3653.859   180.00   1.25983   1.56
   6   1  -3 o  108.437    112.640    180.00   1.25969   0.05
   5   2  -5 o  230.774    243.545    180.00   1.25955   0.10
   6  -1  -3 o  126.421    134.706     0.00    1.25948   0.05
   1   4  -2 o  325.719    353.477     0.00    1.25936   0.15
   6   0   3 o  134.032    147.311     0.00    1.25921   0.06
   2  -3   7 o  97.011     108.161    180.00   1.25901   0.04
   1   0 -12 o  31.163     35.038      0.00    1.25797   0.01
   1   4   2 o  1334.842   1181.490    0.00    1.25629   0.58
   5   0  -8 o  642.000    518.545    180.00   1.25498   0.28
   1  -4   2 o  1021.897   832.131     0.00    1.25478   0.45
   3   0 -11 o  11.833     10.760     180.00   1.25326   0.01
   5   2   4 o  3768.894   3537.572   180.00   1.25289   1.62
   0   4   3 o  105.809    102.136     0.00    1.25258   0.05
   1   3   8 o  1492.718   1653.843    0.00    1.25122   0.64
   0   4  -3 o   3.331      3.811     180.00   1.25095   0.00
   5  -2   4 o  2244.299   2573.601   180.00   1.25077   0.96
   6   1   2 o  2340.466   2725.930    0.00    1.25047   1.02
   6  -1   2 o  4328.599   4943.556   180.00   1.24958   1.86
   4   3   3 o  1114.744   1113.843    0.00    1.24809   0.47
   1  -3   8 o  1256.000   1213.101   180.00   1.24766   0.53
   4  -3  -4 o  917.802    804.927     0.00    1.24596   0.39
   4  -3   3 o  13.768     11.903     180.00   1.24566   0.01
   4   3  -4 o  1985.758   1730.414   180.00   1.24556   0.84
   4   0   9 o  70.374     64.846      0.00    1.24433   0.03
   4   2   7 o  74.156     70.018     180.00   1.24410   0.03
   3   1  10 o  488.416    504.662     0.00    1.24250   0.21
   5   0   7 o   0.148      0.152      0.00    1.24205   0.00
   4  -2   7 o  1309.906   1256.357   180.00   1.24143   0.56
   4   0 -10 o  38.278     36.529     180.00   1.24133   0.01
   4  -2  -8 o  7758.048   7162.751    0.00    1.24106   3.27
   3  -1  10 o  362.485    327.830    180.00   1.24087   0.15
   6   0  -5 o  131.513    113.059     0.00    1.24025   0.05
   1  -4  -3 o  438.492    369.685    180.00   1.24004   0.19
   4   2  -8 o  7200.620   5996.681    0.00    1.23974   3.02
   2   1  11 o  66.929     55.530      0.00    1.23893   0.03
   1   4  -3 o  410.665    335.818     0.00    1.23885   0.17
   2  -1  11 o  570.833    493.515     0.00    1.23728   0.24
   3   3   6 o  3091.998   2642.420   180.00   1.23622   1.29
   6   1  -4 o  2865.246   2416.290   180.00   1.23606   1.21
   6  -1  -4 o  2867.859   2407.218    0.00    1.23599   1.21
   1   4   3 o  2220.264   1686.065   180.00   1.23447   0.91
   1   0  12 o  3290.016   2593.260   180.00   1.23361   1.36
   3  -3   6 o  2343.988   1995.714    0.00    1.23298   0.97
   1  -4   3 o  2203.672   2012.356    0.00    1.23251   0.92
   2  -3  -8 o  20.640     26.966      0.00    1.22931   0.01
   2   4   0 o  14.278     19.251     180.00   1.22896   0.01
   2  -4   0 o  797.789    1035.634   180.00   1.22819   0.33
   2   3  -8 o  276.483    298.409    180.00   1.22681   0.11
   2   4  -1 o  130.377    137.649     0.00    1.22661   0.05
   2  -4  -1 o  582.157    602.583    180.00   1.22635   0.24
   0   1  12 o  1647.494   1678.594   180.00   1.22608   0.68
   0   1 -12 o  1927.958   2021.840    0.00    1.22455   0.79
   2   0 -12 o  535.924    564.690    180.00   1.22442   0.22
   6   0   4 o  22.332     23.689      0.00    1.22395   0.01
   6   1   3 o  921.103    975.579     0.00    1.22391   0.37
   0   4   4 o  884.415    937.328    180.00   1.22385   0.37
   2   4   1 o  417.360    428.471    180.00   1.22326   0.17
   1  -1 -12 o  161.783    162.641     0.00    1.22300   0.07
   6  -1   3 o  240.655    240.788    180.00   1.22295   0.10
   2   2  10 o  1571.174   1486.063    0.00    1.22235   0.65
   2  -4   1 o  1095.607   1006.858    0.00    1.22199   0.45
   0   4  -4 o  598.632    542.325    180.00   1.22182   0.25
   1   1 -12 o  175.050    155.620    180.00   1.22157   0.07
   3  -3  -7 o  894.557    776.577    180.00   1.22090   0.37
   5  -1  -8 o  1002.248   895.467    180.00   1.21981   0.40
   2  -2  10 o  1432.414   1313.248    0.00    1.21944   0.59
   5  -2  -6 o  346.439    321.721     0.00    1.21931   0.14
   5   1  -8 o  517.790    481.983     0.00    1.21928   0.21
   3   3  -7 o  79.273     74.746     180.00   1.21911   0.03
   3   2   9 o  422.214    413.004    180.00   1.21875   0.17
   5   2  -6 o  872.091    853.378     0.00    1.21875   0.35
   3  -1 -11 o  161.072    161.125     0.00    1.21851   0.07
   3   1 -11 o  96.648     103.692     0.00    1.21742   0.04
   2  -4  -2 o   1.805      1.935      0.00    1.21658   0.00
   2   4  -2 o   2.394      2.520      0.00    1.21634   0.00
   3  -2   9 o  82.548     83.827      0.00    1.21593   0.03
   0   2  11 o   0.298      0.300      0.00    1.21589   0.00
   4   3   4 o  2213.298   2219.138   180.00   1.21580   0.90
   4  -3  -5 o   0.160      0.150     180.00   1.21354   0.00
   4  -3   4 o  1731.620   1684.340    0.00    1.21318   0.69
   0   2 -11 o  286.600    279.329    180.00   1.21315   0.12
   1  -4  -4 o  308.985    303.150    180.00   1.21307   0.13
   4   3  -5 o  143.438    144.332     0.00    1.21280   0.06
   1  -2 -11 o  136.144    148.310    180.00   1.21190   0.05
   1   4  -4 o  276.552    316.658    180.00   1.21147   0.12
   5   2   5 o  444.562    510.534    180.00   1.21138   0.18
   4   1   9 o   6.280      8.175     180.00   1.21051   0.00
   2   4   2 o  88.114     132.594    180.00   1.20983   0.04
   1   2 -11 o   6.784     10.972     180.00   1.20938   0.00
   5  -2   5 o   2.777      4.865     180.00   1.20922   0.00
   4  -1   9 o  13.537     24.795     180.00   1.20903   0.01
   5   1   7 o  588.894    1035.495   180.00   1.20833   0.23
   2  -4   2 o  16.731     31.472     180.00   1.20811   0.01
   4  -1 -10 o  24.873     35.288     180.00   1.20744   0.01
   5  -1   7 o  49.933     61.114     180.00   1.20701   0.02
   4   1 -10 o  -0.005      0.000      0.00    1.20659   0.00
   6  -1  -5 o  221.740    183.345    180.00   1.20604   0.09
   1   4   4 o  351.685    289.581    180.00   1.20601   0.14
   6   1  -5 o  68.725     56.676      0.00    1.20598   0.03
   0   3   9 o  379.731    247.479     0.00    1.20507   0.15
   1  -4   4 o   2.497      1.335     180.00   1.20370   0.00
   6   0  -6 o  367.777    320.984     0.00    1.20227   0.15
   0   3  -9 o  373.605    393.135     0.00    1.20181   0.15
   1   1  12 o  96.905     119.573     0.00    1.20067   0.04
   2   3   8 o  127.371    122.646    180.00   1.19978   0.05
   2  -4  -3 o  57.950     50.174     180.00   1.19944   0.02
   1  -3  -9 o  273.424    230.706     0.00    1.19933   0.11
   1  -1  12 o   2.445      1.809     180.00   1.19914   0.00
   2   4  -3 o  22.980     16.517      0.00    1.19873   0.01
_reflns_number_total                   761
_reflns_limit_h_min                    0
_reflns_limit_h_max                    6
_reflns_limit_k_min                    -4
_reflns_limit_k_max                    4
_reflns_limit_l_min                    -12
_reflns_limit_l_max                    12
_reflns_d_resolution_high              1.199
_reflns_d_resolution_low               7.930
#--eof--eof--eof--eof--eof--eof--eof--eof--eof--eof--eof--eof--eof--eof--eof--#
